
  ACD/Labs08291714162D

 25 24  0  0  0  0  0  0  0  0  1 V2000
   15.2559  -12.3335    0.0000 C   0  0  0  0  0  0  0  0  0  0  0  0
   16.4154  -11.6819    0.0000 C   0  0  0  0  0  0  0  0  0  0  0  0
   17.5594  -12.3601    0.0000 C   0  0  0  0  0  0  0  0  0  0  0  0
   18.7189  -11.7085    0.0000 C   0  0  0  0  0  0  0  0  0  0  0  0
   19.8629  -12.3868    0.0000 C   0  0  0  0  0  0  0  0  0  0  0  0
   21.0223  -11.7351    0.0000 C   0  0  0  0  0  0  0  0  0  0  0  0
   22.1664  -12.4134    0.0000 C   0  0  0  0  0  0  0  0  0  0  0  0
   23.3258  -11.7617    0.0000 C   0  0  0  0  0  0  0  0  0  0  0  0
   24.4699  -12.4400    0.0000 C   0  0  0  0  0  0  0  0  0  0  0  0
   25.6293  -11.7883    0.0000 C   0  0  0  0  0  0  0  0  0  0  0  0
   26.7735  -12.4668    0.0000 C   0  0  0  0  0  0  0  0  0  0  0  0
   26.7581  -13.7967    0.0000 O   0  0  0  0  0  0  0  0  0  0  0  0
   27.9329  -11.8151    0.0000 N   0  0  0  0  0  0  0  0  0  0  0  0
   29.0769  -12.4934    0.0000 C   0  0  0  0  0  0  0  0  0  0  0  0
   30.2364  -11.8417    0.0000 C   0  0  0  0  0  0  0  0  0  0  0  0
   31.3804  -12.5200    0.0000 O   0  0  0  0  0  0  0  0  0  0  0  0
   30.2518  -10.5118    0.0000 O   0  0  0  0  0  0  0  0  0  0  0  0
   16.4307  -10.3520    0.0000 O   0  0  0  0  0  0  0  0  0  0  0  0
   14.1119  -11.6553    0.0000 C   0  0  0  0  0  0  0  0  0  0  0  0
   12.9525  -12.3069    0.0000 C   0  0  0  0  0  0  0  0  0  0  0  0
   11.8084  -11.6287    0.0000 C   0  0  0  0  0  0  0  0  0  0  0  0
   10.6490  -12.2803    0.0000 C   0  0  0  0  0  0  0  0  0  0  0  0
    9.5049  -11.6020    0.0000 C   0  0  0  0  0  0  0  0  0  0  0  0
    8.3455  -12.2537    0.0000 O   0  0  0  0  0  0  0  0  0  0  0  0
   17.5441  -13.6901    0.0000 O   0  0  0  0  0  0  0  0  0  0  0  0
  1  2  1  0  0  0  0
  2  3  1  0  0  0  0
  3  4  1  0  0  0  0
  4  5  1  0  0  0  0
  5  6  1  0  0  0  0
  6  7  1  0  0  0  0
  7  8  1  0  0  0  0
  8  9  1  0  0  0  0
  9 10  1  0  0  0  0
 10 11  1  0  0  0  0
 11 12  2  0  0  0  0
 11 13  1  0  0  0  0
 13 14  1  0  0  0  0
 14 15  1  0  0  0  0
 15 16  1  0  0  0  0
 15 17  2  0  0  0  0
  2 18  1  0  0  0  0
  1 19  1  0  0  0  0
 19 20  1  0  0  0  0
 20 21  1  0  0  0  0
 21 22  1  0  0  0  0
 22 23  1  0  0  0  0
 23 24  1  0  0  0  0
  3 25  1  0  0  0  0
M  END
