MODEL 1
REMARK VINA RESULT:      -6.5      0.000      0.000
REMARK WARNING: 32 MAX_TORS EXCEEDED!!!
REMARK  47 active torsions:
REMARK  status: ('A' for Active; 'I' for Inactive)
REMARK    1  A    between atoms: CAA_1  and  CAB_2 
REMARK       I    between atoms: CAA_1  and  N2_31 
REMARK    2  A    between atoms: CAB_2  and  CAC_3 
REMARK    3  A    between atoms: CAC_3  and  CAD_4 
REMARK    4  A    between atoms: CAD_4  and  CAE_5 
REMARK    5  A    between atoms: CAE_5  and  CAF_6 
REMARK    6  A    between atoms: CAF_6  and  CAG_7 
REMARK    7  A    between atoms: CAG_7  and  CAH_8 
REMARK    8  A    between atoms: CAH_8  and  CAI_9 
REMARK    9  A    between atoms: CAI_9  and  CAJ_10 
REMARK   10  A    between atoms: CAJ_10  and  CAK_11 
REMARK   11  A    between atoms: CAK_11  and  CAL_12 
REMARK   12  A    between atoms: CAL_12  and  CAM_13 
REMARK   13  A    between atoms: CAM_13  and  CAN_14 
REMARK   14  A    between atoms: CAN_14  and  CAO_15 
REMARK   15  A    between atoms: CAP_16  and  CAQ_17 
REMARK   16  A    between atoms: CAQ_17  and  CAR_18 
REMARK   17  A    between atoms: CAR_18  and  CAS_19 
REMARK   18  A    between atoms: CAS_19  and  CAT_20 
REMARK   19  A    between atoms: CAT_20  and  CAU_21 
REMARK   20  A    between atoms: CAU_21  and  CAV_22 
REMARK   21  A    between atoms: CAV_22  and  CAW_23 
REMARK   22  A    between atoms: C1_26  and  O1A_28 
REMARK   23  A    between atoms: C1_26  and  C2_29 
REMARK   24  A    between atoms: C1A_27  and  O1A_28 
REMARK   25  A    between atoms: C2_29  and  N2_31 
REMARK   26  A    between atoms: C2_29  and  C3_35 
REMARK   27  A    between atoms: C2A_30  and  O2A_33 
REMARK   28  A    between atoms: C3_35  and  C4_41 
REMARK   29  A    between atoms: C3_35  and  O3_37 
REMARK   30  A    between atoms: C3A_36  and  O3A_39 
REMARK   31  A    between atoms: C4_41  and  C5_47 
REMARK   32  A    between atoms: C4_41  and  O4_43 
REMARK   33  A    between atoms: C4A_42  and  O4A_45 
REMARK   34  A    between atoms: C5_47  and  C6_51 
REMARK   35  A    between atoms: C5M_48  and  C6A_52 
REMARK   36  A    between atoms: O6A_49  and  C6A_52 
REMARK   37  A    between atoms: C6_51  and  C7_54 
REMARK   38  A    between atoms: C7_54  and  C8_55 
REMARK   39  A    between atoms: C8_55  and  C9_56 
REMARK   40  A    between atoms: C9_56  and  C10_57 
REMARK   41  A    between atoms: C10_57  and  C11_58 
REMARK   42  A    between atoms: C11_58  and  C12_59 
REMARK   43  A    between atoms: C12_59  and  C13_60 
REMARK   44  A    between atoms: C13_60  and  C14_61 
REMARK   45  A    between atoms: C14_61  and  C15_62 
REMARK   46  A    between atoms: C15_62  and  C16_63 
REMARK   47  A    between atoms: C16_63  and  C17_64 
ROOT
ATOM      1  C2  JLS C 303     -15.753 -11.520   8.542  1.00 46.50     0.139 C 
ENDROOT
BRANCH   1   2
ATOM      2  C1  JLS C 303     -15.233 -12.466   9.620  1.00 46.25     0.199 C 
BRANCH   2   3
ATOM      3  O1A JLS C 303     -14.292 -13.373   9.049  1.00 43.92    -0.356 OA
BRANCH   3   4
ATOM      4  C1A JLS C 303     -13.498 -14.105   9.983  1.00 41.58     0.291 C 
ATOM      5  O5A JLS C 303     -13.997 -15.435  10.194  1.00 41.02    -0.348 OA
ATOM      6  C5M JLS C 303     -14.143 -16.291   9.036  1.00 39.69     0.179 C 
ATOM      7  C4A JLS C 303     -12.807 -16.411   8.285  1.00 37.95     0.180 C 
ATOM      8  C3A JLS C 303     -12.129 -15.043   8.092  1.00 39.43     0.183 C 
ATOM      9  C2A JLS C 303     -12.096 -14.219   9.387  1.00 41.34     0.204 C 
BRANCH   6  10
ATOM     10  C6A JLS C 303     -14.752 -17.614   9.449  1.00 40.99     0.198 C 
BRANCH  10  11
ATOM     11  O6A JLS C 303     -14.442 -18.567   8.425  1.00 43.00    -0.398 OA
ATOM     12  H6A JLS C 303     -13.496 -18.658   8.397  1.00  0.00     0.209 HD
ENDBRANCH  10  11
ENDBRANCH   6  10
BRANCH   7  13
ATOM     13  O4A JLS C 303     -11.934 -17.359   8.903  1.00 36.96    -0.390 OA
ATOM     14  H4A JLS C 303     -11.132 -16.953   9.209  1.00  0.00     0.210 HD
ENDBRANCH   7  13
BRANCH   8  15
ATOM     15  O3A JLS C 303     -10.817 -15.187   7.538  1.00 40.20    -0.390 OA
ATOM     16  H3A JLS C 303     -10.666 -16.075   7.237  1.00  0.00     0.210 HD
ENDBRANCH   8  15
BRANCH   9  17
ATOM     17  O2A JLS C 303     -11.553 -12.912   9.177  1.00 42.90    -0.388 OA
ATOM     18  H2A JLS C 303     -12.022 -12.281   9.710  1.00  0.00     0.210 HD
ENDBRANCH   9  17
ENDBRANCH   3   4
ENDBRANCH   2   3
ENDBRANCH   1   2
BRANCH   1  19
ATOM     19  N2  JLS C 303     -16.674 -12.255   7.688  1.00 45.49    -0.352 N 
ATOM     20  CAA JLS C 303     -17.882 -11.833   7.325  1.00 47.40     0.218 C 
ATOM     21  OAA JLS C 303     -18.392 -10.801   7.748  1.00 49.90    -0.274 OA
ATOM     22  H2  JLS C 303     -16.370 -13.166   7.342  1.00  0.00     0.163 HD
BRANCH  20  23
ATOM     23  CAB JLS C 303     -18.595 -12.761   6.359  1.00 45.63     0.103 C 
BRANCH  23  24
ATOM     24  CAC JLS C 303     -20.105 -12.561   6.354  1.00 45.31     0.009 C 
BRANCH  24  25
ATOM     25  CAD JLS C 303     -20.862 -13.383   5.331  1.00 47.90     0.000 C 
BRANCH  25  26
ATOM     26  CAE JLS C 303     -22.339 -13.013   5.428  1.00 50.20     0.000 C 
BRANCH  26  27
ATOM     27  CAF JLS C 303     -23.137 -13.414   4.190  1.00 50.32     0.000 C 
BRANCH  27  28
ATOM     28  CAG JLS C 303     -24.621 -13.427   4.531  1.00 50.93     0.000 C 
BRANCH  28  29
ATOM     29  CAH JLS C 303     -25.018 -12.282   5.460  1.00 54.06     0.000 C 
BRANCH  29  30
ATOM     30  CAI JLS C 303     -25.862 -12.779   6.633  1.00 57.04     0.000 C 
BRANCH  30  31
ATOM     31  CAJ JLS C 303     -25.434 -12.187   7.971  1.00 57.21     0.000 C 
BRANCH  31  32
ATOM     32  CAK JLS C 303     -24.373 -11.107   7.761  1.00 59.40     0.000 C 
BRANCH  32  33
ATOM     33  CAL JLS C 303     -23.117 -11.390   8.586  1.00 61.03     0.000 C 
BRANCH  33  34
ATOM     34  CAM JLS C 303     -23.254 -12.603   9.502  1.00 61.76     0.004 C 
BRANCH  34  35
ATOM     35  CAN JLS C 303     -22.250 -13.688   9.120  1.00 61.49     0.027 C 
BRANCH  35  36
ATOM     36  CAO JLS C 303     -22.731 -15.040   9.600  1.00 61.54    -0.031 C 
ATOM     37  CAP JLS C 303     -23.406 -15.902   8.834  1.00 60.21    -0.031 C 
BRANCH  37  38
ATOM     38  CAQ JLS C 303     -23.776 -15.674   7.380  1.00 57.13     0.027 C 
BRANCH  38  39
ATOM     39  CAR JLS C 303     -23.272 -16.820   6.506  1.00 54.04     0.004 C 
BRANCH  39  40
ATOM     40  CAS JLS C 303     -21.811 -16.647   6.100  1.00 53.87     0.000 C 
BRANCH  40  41
ATOM     41  CAT JLS C 303     -20.958 -17.882   6.399  1.00 54.31     0.000 C 
BRANCH  41  42
ATOM     42  CAU JLS C 303     -19.769 -17.594   7.314  1.00 52.87     0.000 C 
BRANCH  42  43
ATOM     43  CAV JLS C 303     -19.618 -16.097   7.581  1.00 51.67    -0.000 C 
BRANCH  43  44
ATOM     44  CAW JLS C 303     -19.196 -15.798   9.016  1.00 51.38    -0.005 C 
ATOM     45  CAX JLS C 303     -17.763 -15.305   9.092  1.00 52.95     0.005 C 
ENDBRANCH  43  44
ENDBRANCH  42  43
ENDBRANCH  41  42
ENDBRANCH  40  41
ENDBRANCH  39  40
ENDBRANCH  38  39
ENDBRANCH  37  38
ENDBRANCH  35  36
ENDBRANCH  34  35
ENDBRANCH  33  34
ENDBRANCH  32  33
ENDBRANCH  31  32
ENDBRANCH  30  31
ENDBRANCH  29  30
ENDBRANCH  28  29
ENDBRANCH  27  28
ENDBRANCH  26  27
ENDBRANCH  25  26
ENDBRANCH  24  25
ENDBRANCH  23  24
ENDBRANCH  20  23
ENDBRANCH   1  19
BRANCH   1  46
ATOM     46  C3  JLS C 303     -14.630 -10.927   7.681  1.00 48.16     0.171 C 
BRANCH  46  47
ATOM     47  C4  JLS C 303     -15.089  -9.724   6.849  1.00 47.00     0.149 C 
BRANCH  47  48
ATOM     48  C5  JLS C 303     -13.965  -8.782   6.386  1.00 48.64     0.034 C 
BRANCH  48  49
ATOM     49  C6  JLS C 303     -14.427  -7.570   5.571  1.00 51.61     0.002 C 
BRANCH  49  50
ATOM     50  C7  JLS C 303     -13.558  -7.252   4.346  1.00 49.49     0.000 C 
BRANCH  50  51
ATOM     51  C8  JLS C 303     -13.912  -5.889   3.753  1.00 49.71     0.000 C 
BRANCH  51  52
ATOM     52  C9  JLS C 303     -14.339  -4.871   4.816  1.00 49.25     0.000 C 
BRANCH  52  53
ATOM     53  C10 JLS C 303     -13.573  -3.560   4.689  1.00 48.85     0.000 C 
BRANCH  53  54
ATOM     54  C11 JLS C 303     -14.452  -2.368   5.051  1.00 51.04     0.000 C 
BRANCH  54  55
ATOM     55  C12 JLS C 303     -13.876  -1.563   6.211  1.00 50.81     0.000 C 
BRANCH  55  56
ATOM     56  C13 JLS C 303     -12.484  -2.067   6.552  1.00 50.05     0.000 C 
BRANCH  56  57
ATOM     57  C14 JLS C 303     -12.298  -2.141   8.060  1.00 51.39     0.000 C 
BRANCH  57  58
ATOM     58  C15 JLS C 303     -10.844  -2.395   8.418  1.00 53.80     0.000 C 
BRANCH  58  59
ATOM     59  C16 JLS C 303     -10.588  -3.870   8.704  1.00 55.42    -0.000 C 
BRANCH  59  60
ATOM     60  C17 JLS C 303      -9.801  -4.483   7.557  1.00 57.06    -0.005 C 
ATOM     61  C18 JLS C 303     -10.714  -5.079   6.510  1.00 59.06     0.005 C 
ENDBRANCH  59  60
ENDBRANCH  58  59
ENDBRANCH  57  58
ENDBRANCH  56  57
ENDBRANCH  55  56
ENDBRANCH  54  55
ENDBRANCH  53  54
ENDBRANCH  52  53
ENDBRANCH  51  52
ENDBRANCH  50  51
ENDBRANCH  49  50
ENDBRANCH  48  49
ENDBRANCH  47  48
BRANCH  47  62
ATOM     62  O4  JLS C 303     -15.873 -10.214   5.751  1.00 47.02    -0.393 OA
ATOM     63  H4  JLS C 303     -16.019 -11.152   5.804  1.00  0.00     0.210 HD
ENDBRANCH  47  62
ENDBRANCH  46  47
BRANCH  46  64
ATOM     64  O3  JLS C 303     -13.509 -10.584   8.494  1.00 51.74    -0.391 OA
ATOM     65  H3  JLS C 303     -13.800 -10.234   9.327  1.00  0.00     0.210 HD
ENDBRANCH  46  64
ENDBRANCH   1  46
TORSDOF 47
ENDMDL
MODEL 2
REMARK VINA RESULT:      -6.5      1.655      3.541
REMARK WARNING: 32 MAX_TORS EXCEEDED!!!
REMARK  47 active torsions:
REMARK  status: ('A' for Active; 'I' for Inactive)
REMARK    1  A    between atoms: CAA_1  and  CAB_2 
REMARK       I    between atoms: CAA_1  and  N2_31 
REMARK    2  A    between atoms: CAB_2  and  CAC_3 
REMARK    3  A    between atoms: CAC_3  and  CAD_4 
REMARK    4  A    between atoms: CAD_4  and  CAE_5 
REMARK    5  A    between atoms: CAE_5  and  CAF_6 
REMARK    6  A    between atoms: CAF_6  and  CAG_7 
REMARK    7  A    between atoms: CAG_7  and  CAH_8 
REMARK    8  A    between atoms: CAH_8  and  CAI_9 
REMARK    9  A    between atoms: CAI_9  and  CAJ_10 
REMARK   10  A    between atoms: CAJ_10  and  CAK_11 
REMARK   11  A    between atoms: CAK_11  and  CAL_12 
REMARK   12  A    between atoms: CAL_12  and  CAM_13 
REMARK   13  A    between atoms: CAM_13  and  CAN_14 
REMARK   14  A    between atoms: CAN_14  and  CAO_15 
REMARK   15  A    between atoms: CAP_16  and  CAQ_17 
REMARK   16  A    between atoms: CAQ_17  and  CAR_18 
REMARK   17  A    between atoms: CAR_18  and  CAS_19 
REMARK   18  A    between atoms: CAS_19  and  CAT_20 
REMARK   19  A    between atoms: CAT_20  and  CAU_21 
REMARK   20  A    between atoms: CAU_21  and  CAV_22 
REMARK   21  A    between atoms: CAV_22  and  CAW_23 
REMARK   22  A    between atoms: C1_26  and  O1A_28 
REMARK   23  A    between atoms: C1_26  and  C2_29 
REMARK   24  A    between atoms: C1A_27  and  O1A_28 
REMARK   25  A    between atoms: C2_29  and  N2_31 
REMARK   26  A    between atoms: C2_29  and  C3_35 
REMARK   27  A    between atoms: C2A_30  and  O2A_33 
REMARK   28  A    between atoms: C3_35  and  C4_41 
REMARK   29  A    between atoms: C3_35  and  O3_37 
REMARK   30  A    between atoms: C3A_36  and  O3A_39 
REMARK   31  A    between atoms: C4_41  and  C5_47 
REMARK   32  A    between atoms: C4_41  and  O4_43 
REMARK   33  A    between atoms: C4A_42  and  O4A_45 
REMARK   34  A    between atoms: C5_47  and  C6_51 
REMARK   35  A    between atoms: C5M_48  and  C6A_52 
REMARK   36  A    between atoms: O6A_49  and  C6A_52 
REMARK   37  A    between atoms: C6_51  and  C7_54 
REMARK   38  A    between atoms: C7_54  and  C8_55 
REMARK   39  A    between atoms: C8_55  and  C9_56 
REMARK   40  A    between atoms: C9_56  and  C10_57 
REMARK   41  A    between atoms: C10_57  and  C11_58 
REMARK   42  A    between atoms: C11_58  and  C12_59 
REMARK   43  A    between atoms: C12_59  and  C13_60 
REMARK   44  A    between atoms: C13_60  and  C14_61 
REMARK   45  A    between atoms: C14_61  and  C15_62 
REMARK   46  A    between atoms: C15_62  and  C16_63 
REMARK   47  A    between atoms: C16_63  and  C17_64 
ROOT
ATOM      1  C2  JLS C 303     -15.752 -11.352   8.945  1.00 46.50     0.139 C 
ENDROOT
BRANCH   1   2
ATOM      2  C1  JLS C 303     -15.565 -12.754   9.516  1.00 46.25     0.199 C 
BRANCH   2   3
ATOM      3  O1A JLS C 303     -14.348 -13.314   9.024  1.00 43.92    -0.356 OA
BRANCH   3   4
ATOM      4  C1A JLS C 303     -13.565 -14.021   9.985  1.00 41.58     0.291 C 
ATOM      5  O5A JLS C 303     -14.093 -15.327  10.261  1.00 41.02    -0.348 OA
ATOM      6  C5M JLS C 303     -14.270 -16.232   9.144  1.00 39.69     0.179 C 
ATOM      7  C4A JLS C 303     -12.943 -16.419   8.390  1.00 37.95     0.180 C 
ATOM      8  C3A JLS C 303     -12.234 -15.078   8.130  1.00 39.43     0.183 C 
ATOM      9  C2A JLS C 303     -12.171 -14.196   9.385  1.00 41.34     0.204 C 
BRANCH   6  10
ATOM     10  C6A JLS C 303     -14.906 -17.519   9.622  1.00 40.99     0.198 C 
BRANCH  10  11
ATOM     11  O6A JLS C 303     -16.199 -17.612   9.011  1.00 43.00    -0.398 OA
ATOM     12  H6A JLS C 303     -16.837 -17.708   9.708  1.00  0.00     0.209 HD
ENDBRANCH  10  11
ENDBRANCH   6  10
BRANCH   7  13
ATOM     13  O4A JLS C 303     -12.087 -17.358   9.045  1.00 36.96    -0.390 OA
ATOM     14  H4A JLS C 303     -11.177 -17.231   8.808  1.00  0.00     0.210 HD
ENDBRANCH   7  13
BRANCH   8  15
ATOM     15  O3A JLS C 303     -10.930 -15.279   7.573  1.00 40.20    -0.390 OA
ATOM     16  H3A JLS C 303     -10.263 -15.276   8.249  1.00  0.00     0.210 HD
ENDBRANCH   8  15
BRANCH   9  17
ATOM     17  O2A JLS C 303     -11.599 -12.914   9.111  1.00 42.90    -0.388 OA
ATOM     18  H2A JLS C 303     -12.092 -12.240   9.564  1.00  0.00     0.210 HD
ENDBRANCH   9  17
ENDBRANCH   3   4
ENDBRANCH   2   3
ENDBRANCH   1   2
BRANCH   1  19
ATOM     19  N2  JLS C 303     -17.074 -11.272   8.341  1.00 45.49    -0.352 N 
ATOM     20  CAA JLS C 303     -18.005 -10.374   8.656  1.00 47.40     0.218 C 
ATOM     21  OAA JLS C 303     -17.878  -9.560   9.564  1.00 49.90    -0.274 OA
ATOM     22  H2  JLS C 303     -17.305 -11.957   7.622  1.00  0.00     0.163 HD
BRANCH  20  23
ATOM     23  CAB JLS C 303     -19.261 -10.466   7.810  1.00 45.63     0.103 C 
BRANCH  23  24
ATOM     24  CAC JLS C 303     -19.289 -11.707   6.927  1.00 45.31     0.009 C 
BRANCH  24  25
ATOM     25  CAD JLS C 303     -20.635 -12.394   6.821  1.00 47.90     0.000 C 
BRANCH  25  26
ATOM     26  CAE JLS C 303     -20.599 -13.317   5.606  1.00 50.20     0.000 C 
BRANCH  26  27
ATOM     27  CAF JLS C 303     -21.686 -14.388   5.639  1.00 50.32     0.000 C 
BRANCH  27  28
ATOM     28  CAG JLS C 303     -22.593 -14.147   6.837  1.00 50.93     0.000 C 
BRANCH  28  29
ATOM     29  CAH JLS C 303     -23.054 -15.447   7.493  1.00 54.06     0.000 C 
BRANCH  29  30
ATOM     30  CAI JLS C 303     -23.530 -16.461   6.454  1.00 57.04     0.000 C 
BRANCH  30  31
ATOM     31  CAJ JLS C 303     -22.951 -17.855   6.670  1.00 57.21     0.000 C 
BRANCH  31  32
ATOM     32  CAK JLS C 303     -21.799 -18.111   5.700  1.00 59.40     0.000 C 
BRANCH  32  33
ATOM     33  CAL JLS C 303     -20.446 -17.818   6.349  1.00 61.03     0.000 C 
BRANCH  33  34
ATOM     34  CAM JLS C 303     -20.373 -18.241   7.814  1.00 61.76     0.004 C 
BRANCH  34  35
ATOM     35  CAN JLS C 303     -19.959 -17.067   8.698  1.00 61.49     0.027 C 
BRANCH  35  36
ATOM     36  CAO JLS C 303     -19.154 -16.067   7.899  1.00 61.54    -0.031 C 
ATOM     37  CAP JLS C 303     -18.569 -14.991   8.434  1.00 60.21    -0.031 C 
BRANCH  37  38
ATOM     38  CAQ JLS C 303     -18.601 -14.618   9.905  1.00 57.13     0.027 C 
BRANCH  38  39
ATOM     39  CAR JLS C 303     -19.872 -13.841  10.240  1.00 54.04     0.004 C 
BRANCH  39  40
ATOM     40  CAS JLS C 303     -19.580 -12.509  10.925  1.00 53.87     0.000 C 
BRANCH  40  41
ATOM     41  CAT JLS C 303     -18.723 -12.661  12.183  1.00 54.31     0.000 C 
BRANCH  41  42
ATOM     42  CAU JLS C 303     -17.743 -11.508  12.395  1.00 52.87     0.000 C 
BRANCH  42  43
ATOM     43  CAV JLS C 303     -16.445 -11.989  13.044  1.00 51.67    -0.000 C 
BRANCH  43  44
ATOM     44  CAW JLS C 303     -16.561 -13.401  13.607  1.00 51.38    -0.005 C 
ATOM     45  CAX JLS C 303     -16.282 -13.439  15.098  1.00 52.95     0.005 C 
ENDBRANCH  43  44
ENDBRANCH  42  43
ENDBRANCH  41  42
ENDBRANCH  40  41
ENDBRANCH  39  40
ENDBRANCH  38  39
ENDBRANCH  37  38
ENDBRANCH  35  36
ENDBRANCH  34  35
ENDBRANCH  33  34
ENDBRANCH  32  33
ENDBRANCH  31  32
ENDBRANCH  30  31
ENDBRANCH  29  30
ENDBRANCH  28  29
ENDBRANCH  27  28
ENDBRANCH  26  27
ENDBRANCH  25  26
ENDBRANCH  24  25
ENDBRANCH  23  24
ENDBRANCH  20  23
ENDBRANCH   1  19
BRANCH   1  46
ATOM     46  C3  JLS C 303     -14.694 -10.993   7.893  1.00 48.16     0.171 C 
BRANCH  46  47
ATOM     47  C4  JLS C 303     -15.175  -9.924   6.904  1.00 47.00     0.149 C 
BRANCH  47  48
ATOM     48  C5  JLS C 303     -14.085  -8.966   6.396  1.00 48.64     0.034 C 
BRANCH  48  49
ATOM     49  C6  JLS C 303     -14.601  -7.744   5.629  1.00 51.61     0.002 C 
BRANCH  49  50
ATOM     50  C7  JLS C 303     -13.577  -7.103   4.682  1.00 49.49     0.000 C 
BRANCH  50  51
ATOM     51  C8  JLS C 303     -14.124  -5.818   4.060  1.00 49.71     0.000 C 
BRANCH  51  52
ATOM     52  C9  JLS C 303     -15.308  -5.239   4.841  1.00 49.25     0.000 C 
BRANCH  52  53
ATOM     53  C10 JLS C 303     -15.097  -3.770   5.190  1.00 48.85     0.000 C 
BRANCH  53  54
ATOM     54  C11 JLS C 303     -13.707  -3.298   4.779  1.00 51.04     0.000 C 
BRANCH  54  55
ATOM     55  C12 JLS C 303     -13.116  -2.316   5.785  1.00 50.81     0.000 C 
BRANCH  55  56
ATOM     56  C13 JLS C 303     -13.731  -2.542   7.156  1.00 50.05     0.000 C 
BRANCH  56  57
ATOM     57  C14 JLS C 303     -12.759  -2.128   8.251  1.00 51.39     0.000 C 
BRANCH  57  58
ATOM     58  C15 JLS C 303     -11.321  -2.336   7.810  1.00 53.80     0.000 C 
BRANCH  58  59
ATOM     59  C16 JLS C 303     -10.690  -3.537   8.505  1.00 55.42    -0.000 C 
BRANCH  59  60
ATOM     60  C17 JLS C 303      -9.994  -4.413   7.477  1.00 57.06    -0.005 C 
ATOM     61  C18 JLS C 303     -10.985  -5.092   6.560  1.00 59.06     0.005 C 
ENDBRANCH  59  60
ENDBRANCH  58  59
ENDBRANCH  57  58
ENDBRANCH  56  57
ENDBRANCH  55  56
ENDBRANCH  54  55
ENDBRANCH  53  54
ENDBRANCH  52  53
ENDBRANCH  51  52
ENDBRANCH  50  51
ENDBRANCH  49  50
ENDBRANCH  48  49
ENDBRANCH  47  48
BRANCH  47  62
ATOM     62  O4  JLS C 303     -15.859 -10.587   5.830  1.00 47.02    -0.393 OA
ATOM     63  H4  JLS C 303     -16.302 -11.376   6.119  1.00  0.00     0.210 HD
ENDBRANCH  47  62
ENDBRANCH  46  47
BRANCH  46  64
ATOM     64  O3  JLS C 303     -13.481 -10.590   8.526  1.00 51.74    -0.391 OA
ATOM     65  H3  JLS C 303     -13.160  -9.782   8.142  1.00  0.00     0.210 HD
ENDBRANCH  46  64
ENDBRANCH   1  46
TORSDOF 47
ENDMDL
MODEL 3
REMARK VINA RESULT:      -6.4      2.418      4.589
REMARK WARNING: 32 MAX_TORS EXCEEDED!!!
REMARK  47 active torsions:
REMARK  status: ('A' for Active; 'I' for Inactive)
REMARK    1  A    between atoms: CAA_1  and  CAB_2 
REMARK       I    between atoms: CAA_1  and  N2_31 
REMARK    2  A    between atoms: CAB_2  and  CAC_3 
REMARK    3  A    between atoms: CAC_3  and  CAD_4 
REMARK    4  A    between atoms: CAD_4  and  CAE_5 
REMARK    5  A    between atoms: CAE_5  and  CAF_6 
REMARK    6  A    between atoms: CAF_6  and  CAG_7 
REMARK    7  A    between atoms: CAG_7  and  CAH_8 
REMARK    8  A    between atoms: CAH_8  and  CAI_9 
REMARK    9  A    between atoms: CAI_9  and  CAJ_10 
REMARK   10  A    between atoms: CAJ_10  and  CAK_11 
REMARK   11  A    between atoms: CAK_11  and  CAL_12 
REMARK   12  A    between atoms: CAL_12  and  CAM_13 
REMARK   13  A    between atoms: CAM_13  and  CAN_14 
REMARK   14  A    between atoms: CAN_14  and  CAO_15 
REMARK   15  A    between atoms: CAP_16  and  CAQ_17 
REMARK   16  A    between atoms: CAQ_17  and  CAR_18 
REMARK   17  A    between atoms: CAR_18  and  CAS_19 
REMARK   18  A    between atoms: CAS_19  and  CAT_20 
REMARK   19  A    between atoms: CAT_20  and  CAU_21 
REMARK   20  A    between atoms: CAU_21  and  CAV_22 
REMARK   21  A    between atoms: CAV_22  and  CAW_23 
REMARK   22  A    between atoms: C1_26  and  O1A_28 
REMARK   23  A    between atoms: C1_26  and  C2_29 
REMARK   24  A    between atoms: C1A_27  and  O1A_28 
REMARK   25  A    between atoms: C2_29  and  N2_31 
REMARK   26  A    between atoms: C2_29  and  C3_35 
REMARK   27  A    between atoms: C2A_30  and  O2A_33 
REMARK   28  A    between atoms: C3_35  and  C4_41 
REMARK   29  A    between atoms: C3_35  and  O3_37 
REMARK   30  A    between atoms: C3A_36  and  O3A_39 
REMARK   31  A    between atoms: C4_41  and  C5_47 
REMARK   32  A    between atoms: C4_41  and  O4_43 
REMARK   33  A    between atoms: C4A_42  and  O4A_45 
REMARK   34  A    between atoms: C5_47  and  C6_51 
REMARK   35  A    between atoms: C5M_48  and  C6A_52 
REMARK   36  A    between atoms: O6A_49  and  C6A_52 
REMARK   37  A    between atoms: C6_51  and  C7_54 
REMARK   38  A    between atoms: C7_54  and  C8_55 
REMARK   39  A    between atoms: C8_55  and  C9_56 
REMARK   40  A    between atoms: C9_56  and  C10_57 
REMARK   41  A    between atoms: C10_57  and  C11_58 
REMARK   42  A    between atoms: C11_58  and  C12_59 
REMARK   43  A    between atoms: C12_59  and  C13_60 
REMARK   44  A    between atoms: C13_60  and  C14_61 
REMARK   45  A    between atoms: C14_61  and  C15_62 
REMARK   46  A    between atoms: C15_62  and  C16_63 
REMARK   47  A    between atoms: C16_63  and  C17_64 
ROOT
ATOM      1  C2  JLS C 303     -15.781 -11.462   9.090  1.00 46.50     0.139 C 
ENDROOT
BRANCH   1   2
ATOM      2  C1  JLS C 303     -15.647 -12.890   9.608  1.00 46.25     0.199 C 
BRANCH   2   3
ATOM      3  O1A JLS C 303     -14.464 -13.484   9.076  1.00 43.92    -0.356 OA
BRANCH   3   4
ATOM      4  C1A JLS C 303     -13.654 -14.189  10.016  1.00 41.58     0.291 C 
ATOM      5  O5A JLS C 303     -14.111 -15.535  10.224  1.00 41.02    -0.348 OA
ATOM      6  C5M JLS C 303     -14.220 -16.395   9.064  1.00 39.69     0.179 C 
ATOM      7  C4A JLS C 303     -12.874 -16.472   8.324  1.00 37.95     0.180 C 
ATOM      8  C3A JLS C 303     -12.240 -15.082   8.137  1.00 39.43     0.183 C 
ATOM      9  C2A JLS C 303     -12.244 -14.258   9.432  1.00 41.34     0.204 C 
BRANCH   6  10
ATOM     10  C6A JLS C 303     -14.788 -17.738   9.472  1.00 40.99     0.198 C 
BRANCH  10  11
ATOM     11  O6A JLS C 303     -16.184 -17.729   9.148  1.00 43.00    -0.398 OA
ATOM     12  H6A JLS C 303     -16.567 -16.962   9.557  1.00  0.00     0.209 HD
ENDBRANCH  10  11
ENDBRANCH   6  10
BRANCH   7  13
ATOM     13  O4A JLS C 303     -11.975 -17.390   8.950  1.00 36.96    -0.390 OA
ATOM     14  H4A JLS C 303     -11.647 -17.056   9.775  1.00  0.00     0.210 HD
ENDBRANCH   7  13
BRANCH   8  15
ATOM     15  O3A JLS C 303     -10.919 -15.183   7.594  1.00 40.20    -0.390 OA
ATOM     16  H3A JLS C 303     -10.930 -15.111   6.647  1.00  0.00     0.210 HD
ENDBRANCH   8  15
BRANCH   9  17
ATOM     17  O2A JLS C 303     -11.743 -12.933   9.227  1.00 42.90    -0.388 OA
ATOM     18  H2A JLS C 303     -12.450 -12.306   9.314  1.00  0.00     0.210 HD
ENDBRANCH   9  17
ENDBRANCH   3   4
ENDBRANCH   2   3
ENDBRANCH   1   2
BRANCH   1  19
ATOM     19  N2  JLS C 303     -17.126 -11.287   8.561  1.00 45.49    -0.352 N 
ATOM     20  CAA JLS C 303     -18.066 -10.516   9.103  1.00 47.40     0.218 C 
ATOM     21  OAA JLS C 303     -17.925  -9.929  10.170  1.00 49.90    -0.274 OA
ATOM     22  H2  JLS C 303     -17.367 -11.795   7.710  1.00  0.00     0.163 HD
BRANCH  20  23
ATOM     23  CAB JLS C 303     -19.349 -10.450   8.296  1.00 45.63     0.103 C 
BRANCH  23  24
ATOM     24  CAC JLS C 303     -19.326 -11.359   7.074  1.00 45.31     0.009 C 
BRANCH  24  25
ATOM     25  CAD JLS C 303     -20.399 -12.427   7.044  1.00 47.90     0.000 C 
BRANCH  25  26
ATOM     26  CAE JLS C 303     -20.188 -13.273   5.791  1.00 50.20     0.000 C 
BRANCH  26  27
ATOM     27  CAF JLS C 303     -21.274 -14.327   5.592  1.00 50.32     0.000 C 
BRANCH  27  28
ATOM     28  CAG JLS C 303     -22.497 -13.675   4.961  1.00 50.93     0.000 C 
BRANCH  28  29
ATOM     29  CAH JLS C 303     -23.757 -13.855   5.805  1.00 54.06     0.000 C 
BRANCH  29  30
ATOM     30  CAI JLS C 303     -24.358 -12.509   6.209  1.00 57.04     0.000 C 
BRANCH  30  31
ATOM     31  CAJ JLS C 303     -23.628 -11.320   5.594  1.00 57.21     0.000 C 
BRANCH  31  32
ATOM     32  CAK JLS C 303     -23.762 -10.091   6.492  1.00 59.40     0.000 C 
BRANCH  32  33
ATOM     33  CAL JLS C 303     -24.699  -9.049   5.878  1.00 61.03     0.000 C 
BRANCH  33  34
ATOM     34  CAM JLS C 303     -25.119  -9.380   4.448  1.00 61.76     0.004 C 
BRANCH  34  35
ATOM     35  CAN JLS C 303     -25.045  -8.140   3.560  1.00 61.49     0.027 C 
BRANCH  35  36
ATOM     36  CAO JLS C 303     -23.787  -8.169   2.722  1.00 61.54    -0.031 C 
ATOM     37  CAP JLS C 303     -23.777  -8.426   1.410  1.00 60.21    -0.031 C 
BRANCH  37  38
ATOM     38  CAQ JLS C 303     -25.005  -8.708   0.565  1.00 57.13     0.027 C 
BRANCH  38  39
ATOM     39  CAR JLS C 303     -24.608  -9.104  -0.855  1.00 54.04     0.004 C 
BRANCH  39  40
ATOM     40  CAS JLS C 303     -24.695 -10.609  -1.088  1.00 53.87     0.000 C 
BRANCH  40  41
ATOM     41  CAT JLS C 303     -23.401 -11.345  -0.734  1.00 54.31     0.000 C 
BRANCH  41  42
ATOM     42  CAU JLS C 303     -23.610 -12.516   0.225  1.00 52.87     0.000 C 
BRANCH  42  43
ATOM     43  CAV JLS C 303     -23.647 -12.049   1.679  1.00 51.67    -0.000 C 
BRANCH  43  44
ATOM     44  CAW JLS C 303     -24.865 -12.577   2.432  1.00 51.38    -0.005 C 
ATOM     45  CAX JLS C 303     -26.153 -11.952   1.928  1.00 52.95     0.005 C 
ENDBRANCH  43  44
ENDBRANCH  42  43
ENDBRANCH  41  42
ENDBRANCH  40  41
ENDBRANCH  39  40
ENDBRANCH  38  39
ENDBRANCH  37  38
ENDBRANCH  35  36
ENDBRANCH  34  35
ENDBRANCH  33  34
ENDBRANCH  32  33
ENDBRANCH  31  32
ENDBRANCH  30  31
ENDBRANCH  29  30
ENDBRANCH  28  29
ENDBRANCH  27  28
ENDBRANCH  26  27
ENDBRANCH  25  26
ENDBRANCH  24  25
ENDBRANCH  23  24
ENDBRANCH  20  23
ENDBRANCH   1  19
BRANCH   1  46
ATOM     46  C3  JLS C 303     -14.761 -11.129   7.993  1.00 48.16     0.171 C 
BRANCH  46  47
ATOM     47  C4  JLS C 303     -15.293 -10.120   6.969  1.00 47.00     0.149 C 
BRANCH  47  48
ATOM     48  C5  JLS C 303     -14.244  -9.151   6.399  1.00 48.64     0.034 C 
BRANCH  48  49
ATOM     49  C6  JLS C 303     -14.811  -7.871   5.777  1.00 51.61     0.002 C 
BRANCH  49  50
ATOM     50  C7  JLS C 303     -13.898  -7.204   4.739  1.00 49.49     0.000 C 
BRANCH  50  51
ATOM     51  C8  JLS C 303     -14.562  -5.972   4.125  1.00 49.71     0.000 C 
BRANCH  51  52
ATOM     52  C9  JLS C 303     -15.889  -5.613   4.804  1.00 49.25     0.000 C 
BRANCH  52  53
ATOM     53  C10 JLS C 303     -15.928  -4.153   5.240  1.00 48.85     0.000 C 
BRANCH  53  54
ATOM     54  C11 JLS C 303     -14.608  -3.450   4.944  1.00 51.04     0.000 C 
BRANCH  54  55
ATOM     55  C12 JLS C 303     -14.766  -1.935   4.890  1.00 50.81     0.000 C 
BRANCH  55  56
ATOM     56  C13 JLS C 303     -13.903  -1.284   5.958  1.00 50.05     0.000 C 
BRANCH  56  57
ATOM     57  C14 JLS C 303     -12.751  -2.200   6.345  1.00 51.39     0.000 C 
BRANCH  57  58
ATOM     58  C15 JLS C 303     -12.572  -2.243   7.852  1.00 53.80     0.000 C 
BRANCH  58  59
ATOM     59  C16 JLS C 303     -11.098  -2.270   8.240  1.00 55.42    -0.000 C 
BRANCH  59  60
ATOM     60  C17 JLS C 303     -10.459  -3.549   7.724  1.00 57.06    -0.005 C 
ATOM     61  C18 JLS C 303     -10.176  -4.523   8.843  1.00 59.06     0.005 C 
ENDBRANCH  59  60
ENDBRANCH  58  59
ENDBRANCH  57  58
ENDBRANCH  56  57
ENDBRANCH  55  56
ENDBRANCH  54  55
ENDBRANCH  53  54
ENDBRANCH  52  53
ENDBRANCH  51  52
ENDBRANCH  50  51
ENDBRANCH  49  50
ENDBRANCH  48  49
ENDBRANCH  47  48
BRANCH  47  62
ATOM     62  O4  JLS C 303     -15.976 -10.849   5.938  1.00 47.02    -0.393 OA
ATOM     63  H4  JLS C 303     -15.890 -11.789   6.046  1.00  0.00     0.210 HD
ENDBRANCH  47  62
ENDBRANCH  46  47
BRANCH  46  64
ATOM     64  O3  JLS C 303     -13.541 -10.669   8.573  1.00 51.74    -0.391 OA
ATOM     65  H3  JLS C 303     -13.073 -10.113   7.960  1.00  0.00     0.210 HD
ENDBRANCH  46  64
ENDBRANCH   1  46
TORSDOF 47
ENDMDL
MODEL 4
REMARK VINA RESULT:      -6.3      3.614      5.148
REMARK WARNING: 32 MAX_TORS EXCEEDED!!!
REMARK  47 active torsions:
REMARK  status: ('A' for Active; 'I' for Inactive)
REMARK    1  A    between atoms: CAA_1  and  CAB_2 
REMARK       I    between atoms: CAA_1  and  N2_31 
REMARK    2  A    between atoms: CAB_2  and  CAC_3 
REMARK    3  A    between atoms: CAC_3  and  CAD_4 
REMARK    4  A    between atoms: CAD_4  and  CAE_5 
REMARK    5  A    between atoms: CAE_5  and  CAF_6 
REMARK    6  A    between atoms: CAF_6  and  CAG_7 
REMARK    7  A    between atoms: CAG_7  and  CAH_8 
REMARK    8  A    between atoms: CAH_8  and  CAI_9 
REMARK    9  A    between atoms: CAI_9  and  CAJ_10 
REMARK   10  A    between atoms: CAJ_10  and  CAK_11 
REMARK   11  A    between atoms: CAK_11  and  CAL_12 
REMARK   12  A    between atoms: CAL_12  and  CAM_13 
REMARK   13  A    between atoms: CAM_13  and  CAN_14 
REMARK   14  A    between atoms: CAN_14  and  CAO_15 
REMARK   15  A    between atoms: CAP_16  and  CAQ_17 
REMARK   16  A    between atoms: CAQ_17  and  CAR_18 
REMARK   17  A    between atoms: CAR_18  and  CAS_19 
REMARK   18  A    between atoms: CAS_19  and  CAT_20 
REMARK   19  A    between atoms: CAT_20  and  CAU_21 
REMARK   20  A    between atoms: CAU_21  and  CAV_22 
REMARK   21  A    between atoms: CAV_22  and  CAW_23 
REMARK   22  A    between atoms: C1_26  and  O1A_28 
REMARK   23  A    between atoms: C1_26  and  C2_29 
REMARK   24  A    between atoms: C1A_27  and  O1A_28 
REMARK   25  A    between atoms: C2_29  and  N2_31 
REMARK   26  A    between atoms: C2_29  and  C3_35 
REMARK   27  A    between atoms: C2A_30  and  O2A_33 
REMARK   28  A    between atoms: C3_35  and  C4_41 
REMARK   29  A    between atoms: C3_35  and  O3_37 
REMARK   30  A    between atoms: C3A_36  and  O3A_39 
REMARK   31  A    between atoms: C4_41  and  C5_47 
REMARK   32  A    between atoms: C4_41  and  O4_43 
REMARK   33  A    between atoms: C4A_42  and  O4A_45 
REMARK   34  A    between atoms: C5_47  and  C6_51 
REMARK   35  A    between atoms: C5M_48  and  C6A_52 
REMARK   36  A    between atoms: O6A_49  and  C6A_52 
REMARK   37  A    between atoms: C6_51  and  C7_54 
REMARK   38  A    between atoms: C7_54  and  C8_55 
REMARK   39  A    between atoms: C8_55  and  C9_56 
REMARK   40  A    between atoms: C9_56  and  C10_57 
REMARK   41  A    between atoms: C10_57  and  C11_58 
REMARK   42  A    between atoms: C11_58  and  C12_59 
REMARK   43  A    between atoms: C12_59  and  C13_60 
REMARK   44  A    between atoms: C13_60  and  C14_61 
REMARK   45  A    between atoms: C14_61  and  C15_62 
REMARK   46  A    between atoms: C15_62  and  C16_63 
REMARK   47  A    between atoms: C16_63  and  C17_64 
ROOT
ATOM      1  C2  JLS C 303     -15.766 -11.714   8.852  1.00 46.50     0.139 C 
ENDROOT
BRANCH   1   2
ATOM      2  C1  JLS C 303     -15.140 -12.617   9.910  1.00 46.25     0.199 C 
BRANCH   2   3
ATOM      3  O1A JLS C 303     -14.315 -13.594   9.278  1.00 43.92    -0.356 OA
BRANCH   3   4
ATOM      4  C1A JLS C 303     -13.482 -14.354  10.153  1.00 41.58     0.291 C 
ATOM      5  O5A JLS C 303     -13.934 -15.710  10.292  1.00 41.02    -0.348 OA
ATOM      6  C5M JLS C 303     -14.074 -16.499   9.087  1.00 39.69     0.179 C 
ATOM      7  C4A JLS C 303     -12.747 -16.531   8.309  1.00 37.95     0.180 C 
ATOM      8  C3A JLS C 303     -12.117 -15.131   8.188  1.00 39.43     0.183 C 
ATOM      9  C2A JLS C 303     -12.088 -14.386   9.529  1.00 41.34     0.204 C 
BRANCH   6  10
ATOM     10  C6A JLS C 303     -14.632 -17.864   9.429  1.00 40.99     0.198 C 
BRANCH  10  11
ATOM     11  O6A JLS C 303     -14.586 -18.658   8.237  1.00 43.00    -0.398 OA
ATOM     12  H6A JLS C 303     -14.545 -18.061   7.499  1.00  0.00     0.209 HD
ENDBRANCH  10  11
ENDBRANCH   6  10
BRANCH   7  13
ATOM     13  O4A JLS C 303     -11.833 -17.484   8.854  1.00 36.96    -0.390 OA
ATOM     14  H4A JLS C 303     -12.183 -18.366   8.824  1.00  0.00     0.210 HD
ENDBRANCH   7  13
BRANCH   8  15
ATOM     15  O3A JLS C 303     -10.812 -15.198   7.605  1.00 40.20    -0.390 OA
ATOM     16  H3A JLS C 303     -10.835 -15.625   6.757  1.00  0.00     0.210 HD
ENDBRANCH   8  15
BRANCH   9  17
ATOM     17  O2A JLS C 303     -11.591 -13.051   9.390  1.00 42.90    -0.388 OA
ATOM     18  H2A JLS C 303     -11.146 -12.960   8.556  1.00  0.00     0.210 HD
ENDBRANCH   9  17
ENDBRANCH   3   4
ENDBRANCH   2   3
ENDBRANCH   1   2
BRANCH   1  19
ATOM     19  N2  JLS C 303     -16.739 -12.492   8.099  1.00 45.49    -0.352 N 
ATOM     20  CAA JLS C 303     -17.940 -12.851   8.544  1.00 47.40     0.218 C 
ATOM     21  OAA JLS C 303     -18.329 -12.637   9.687  1.00 49.90    -0.274 OA
ATOM     22  H2  JLS C 303     -16.479 -12.784   7.156  1.00  0.00     0.163 HD
BRANCH  20  23
ATOM     23  CAB JLS C 303     -18.784 -13.585   7.518  1.00 45.63     0.103 C 
BRANCH  23  24
ATOM     24  CAC JLS C 303     -19.435 -12.648   6.510  1.00 45.31     0.009 C 
BRANCH  24  25
ATOM     25  CAD JLS C 303     -19.754 -11.261   7.029  1.00 47.90     0.000 C 
BRANCH  25  26
ATOM     26  CAE JLS C 303     -21.156 -11.294   7.632  1.00 50.20     0.000 C 
BRANCH  26  27
ATOM     27  CAF JLS C 303     -21.235 -10.614   8.996  1.00 50.32     0.000 C 
BRANCH  27  28
ATOM     28  CAG JLS C 303     -20.190  -9.508   9.068  1.00 50.93     0.000 C 
BRANCH  28  29
ATOM     29  CAH JLS C 303     -20.779  -8.128   8.784  1.00 54.06     0.000 C 
BRANCH  29  30
ATOM     30  CAI JLS C 303     -21.763  -7.703   9.872  1.00 57.04     0.000 C 
BRANCH  30  31
ATOM     31  CAJ JLS C 303     -21.924  -6.191   9.975  1.00 57.21     0.000 C 
BRANCH  31  32
ATOM     32  CAK JLS C 303     -22.411  -5.800  11.370  1.00 59.40     0.000 C 
BRANCH  32  33
ATOM     33  CAL JLS C 303     -21.891  -4.422  11.779  1.00 61.03     0.000 C 
BRANCH  33  34
ATOM     34  CAM JLS C 303     -21.812  -4.228  13.291  1.00 61.76     0.004 C 
BRANCH  34  35
ATOM     35  CAN JLS C 303     -20.802  -5.192  13.911  1.00 61.49     0.027 C 
BRANCH  35  36
ATOM     36  CAO JLS C 303     -21.466  -6.031  14.979  1.00 61.54    -0.031 C 
ATOM     37  CAP JLS C 303     -21.721  -7.336  14.843  1.00 60.21    -0.031 C 
BRANCH  37  38
ATOM     38  CAQ JLS C 303     -21.376  -8.173  13.625  1.00 57.13     0.027 C 
BRANCH  38  39
ATOM     39  CAR JLS C 303     -19.981  -8.778  13.759  1.00 54.04     0.004 C 
BRANCH  39  40
ATOM     40  CAS JLS C 303     -19.730  -9.898  12.754  1.00 53.87     0.000 C 
BRANCH  40  41
ATOM     41  CAT JLS C 303     -18.253 -10.052  12.387  1.00 54.31     0.000 C 
BRANCH  41  42
ATOM     42  CAU JLS C 303     -17.307  -9.824  13.565  1.00 52.87     0.000 C 
BRANCH  42  43
ATOM     43  CAV JLS C 303     -16.544 -11.099  13.924  1.00 51.67    -0.000 C 
BRANCH  43  44
ATOM     44  CAW JLS C 303     -17.148 -11.823  15.123  1.00 51.38    -0.005 C 
ATOM     45  CAX JLS C 303     -17.885 -10.870  16.046  1.00 52.95     0.005 C 
ENDBRANCH  43  44
ENDBRANCH  42  43
ENDBRANCH  41  42
ENDBRANCH  40  41
ENDBRANCH  39  40
ENDBRANCH  38  39
ENDBRANCH  37  38
ENDBRANCH  35  36
ENDBRANCH  34  35
ENDBRANCH  33  34
ENDBRANCH  32  33
ENDBRANCH  31  32
ENDBRANCH  30  31
ENDBRANCH  29  30
ENDBRANCH  28  29
ENDBRANCH  27  28
ENDBRANCH  26  27
ENDBRANCH  25  26
ENDBRANCH  24  25
ENDBRANCH  23  24
ENDBRANCH  20  23
ENDBRANCH   1  19
BRANCH   1  46
ATOM     46  C3  JLS C 303     -14.732 -11.126   7.884  1.00 48.16     0.171 C 
BRANCH  46  47
ATOM     47  C4  JLS C 303     -15.307 -10.015   6.997  1.00 47.00     0.149 C 
BRANCH  47  48
ATOM     48  C5  JLS C 303     -14.279  -9.001   6.469  1.00 48.64     0.034 C 
BRANCH  48  49
ATOM     49  C6  JLS C 303     -14.861  -7.866   5.621  1.00 51.61     0.002 C 
BRANCH  49  50
ATOM     50  C7  JLS C 303     -13.843  -7.145   4.729  1.00 49.49     0.000 C 
BRANCH  50  51
ATOM     51  C8  JLS C 303     -14.435  -5.871   4.127  1.00 49.71     0.000 C 
BRANCH  51  52
ATOM     52  C9  JLS C 303     -15.702  -5.405   4.854  1.00 49.25     0.000 C 
BRANCH  52  53
ATOM     53  C10 JLS C 303     -15.624  -3.935   5.249  1.00 48.85     0.000 C 
BRANCH  53  54
ATOM     54  C11 JLS C 303     -14.272  -3.334   4.884  1.00 51.04     0.000 C 
BRANCH  54  55
ATOM     55  C12 JLS C 303     -14.183  -1.858   5.256  1.00 50.81     0.000 C 
BRANCH  55  56
ATOM     56  C13 JLS C 303     -13.415  -1.695   6.557  1.00 50.05     0.000 C 
BRANCH  56  57
ATOM     57  C14 JLS C 303     -12.309  -2.735   6.658  1.00 51.39     0.000 C 
BRANCH  57  58
ATOM     58  C15 JLS C 303     -11.370  -2.423   7.810  1.00 53.80     0.000 C 
BRANCH  58  59
ATOM     59  C16 JLS C 303     -10.615  -3.665   8.269  1.00 55.42    -0.000 C 
BRANCH  59  60
ATOM     60  C17 JLS C 303     -10.557  -4.675   7.135  1.00 57.06    -0.005 C 
ATOM     61  C18 JLS C 303      -9.133  -5.004   6.753  1.00 59.06     0.005 C 
ENDBRANCH  59  60
ENDBRANCH  58  59
ENDBRANCH  57  58
ENDBRANCH  56  57
ENDBRANCH  55  56
ENDBRANCH  54  55
ENDBRANCH  53  54
ENDBRANCH  52  53
ENDBRANCH  51  52
ENDBRANCH  50  51
ENDBRANCH  49  50
ENDBRANCH  48  49
ENDBRANCH  47  48
BRANCH  47  62
ATOM     62  O4  JLS C 303     -16.055 -10.632   5.939  1.00 47.02    -0.393 OA
ATOM     63  H4  JLS C 303     -16.984 -10.445   5.999  1.00  0.00     0.210 HD
ENDBRANCH  47  62
ENDBRANCH  46  47
BRANCH  46  64
ATOM     64  O3  JLS C 303     -13.588 -10.663   8.600  1.00 51.74    -0.391 OA
ATOM     65  H3  JLS C 303     -13.727 -10.750   9.536  1.00  0.00     0.210 HD
ENDBRANCH  46  64
ENDBRANCH   1  46
TORSDOF 47
ENDMDL
MODEL 5
REMARK VINA RESULT:      -6.3      1.192      2.762
REMARK WARNING: 32 MAX_TORS EXCEEDED!!!
REMARK  47 active torsions:
REMARK  status: ('A' for Active; 'I' for Inactive)
REMARK    1  A    between atoms: CAA_1  and  CAB_2 
REMARK       I    between atoms: CAA_1  and  N2_31 
REMARK    2  A    between atoms: CAB_2  and  CAC_3 
REMARK    3  A    between atoms: CAC_3  and  CAD_4 
REMARK    4  A    between atoms: CAD_4  and  CAE_5 
REMARK    5  A    between atoms: CAE_5  and  CAF_6 
REMARK    6  A    between atoms: CAF_6  and  CAG_7 
REMARK    7  A    between atoms: CAG_7  and  CAH_8 
REMARK    8  A    between atoms: CAH_8  and  CAI_9 
REMARK    9  A    between atoms: CAI_9  and  CAJ_10 
REMARK   10  A    between atoms: CAJ_10  and  CAK_11 
REMARK   11  A    between atoms: CAK_11  and  CAL_12 
REMARK   12  A    between atoms: CAL_12  and  CAM_13 
REMARK   13  A    between atoms: CAM_13  and  CAN_14 
REMARK   14  A    between atoms: CAN_14  and  CAO_15 
REMARK   15  A    between atoms: CAP_16  and  CAQ_17 
REMARK   16  A    between atoms: CAQ_17  and  CAR_18 
REMARK   17  A    between atoms: CAR_18  and  CAS_19 
REMARK   18  A    between atoms: CAS_19  and  CAT_20 
REMARK   19  A    between atoms: CAT_20  and  CAU_21 
REMARK   20  A    between atoms: CAU_21  and  CAV_22 
REMARK   21  A    between atoms: CAV_22  and  CAW_23 
REMARK   22  A    between atoms: C1_26  and  O1A_28 
REMARK   23  A    between atoms: C1_26  and  C2_29 
REMARK   24  A    between atoms: C1A_27  and  O1A_28 
REMARK   25  A    between atoms: C2_29  and  N2_31 
REMARK   26  A    between atoms: C2_29  and  C3_35 
REMARK   27  A    between atoms: C2A_30  and  O2A_33 
REMARK   28  A    between atoms: C3_35  and  C4_41 
REMARK   29  A    between atoms: C3_35  and  O3_37 
REMARK   30  A    between atoms: C3A_36  and  O3A_39 
REMARK   31  A    between atoms: C4_41  and  C5_47 
REMARK   32  A    between atoms: C4_41  and  O4_43 
REMARK   33  A    between atoms: C4A_42  and  O4A_45 
REMARK   34  A    between atoms: C5_47  and  C6_51 
REMARK   35  A    between atoms: C5M_48  and  C6A_52 
REMARK   36  A    between atoms: O6A_49  and  C6A_52 
REMARK   37  A    between atoms: C6_51  and  C7_54 
REMARK   38  A    between atoms: C7_54  and  C8_55 
REMARK   39  A    between atoms: C8_55  and  C9_56 
REMARK   40  A    between atoms: C9_56  and  C10_57 
REMARK   41  A    between atoms: C10_57  and  C11_58 
REMARK   42  A    between atoms: C11_58  and  C12_59 
REMARK   43  A    between atoms: C12_59  and  C13_60 
REMARK   44  A    between atoms: C13_60  and  C14_61 
REMARK   45  A    between atoms: C14_61  and  C15_62 
REMARK   46  A    between atoms: C15_62  and  C16_63 
REMARK   47  A    between atoms: C16_63  and  C17_64 
ROOT
ATOM      1  C2  JLS C 303     -15.772 -11.463   9.081  1.00 46.50     0.139 C 
ENDROOT
BRANCH   1   2
ATOM      2  C1  JLS C 303     -15.649 -12.902   9.574  1.00 46.25     0.199 C 
BRANCH   2   3
ATOM      3  O1A JLS C 303     -14.458 -13.487   9.049  1.00 43.92    -0.356 OA
BRANCH   3   4
ATOM      4  C1A JLS C 303     -13.649 -14.188   9.994  1.00 41.58     0.291 C 
ATOM      5  O5A JLS C 303     -14.108 -15.531  10.210  1.00 41.02    -0.348 OA
ATOM      6  C5M JLS C 303     -14.218 -16.399   9.056  1.00 39.69     0.179 C 
ATOM      7  C4A JLS C 303     -12.872 -16.482   8.317  1.00 37.95     0.180 C 
ATOM      8  C3A JLS C 303     -12.236 -15.094   8.121  1.00 39.43     0.183 C 
ATOM      9  C2A JLS C 303     -12.240 -14.261   9.411  1.00 41.34     0.204 C 
BRANCH   6  10
ATOM     10  C6A JLS C 303     -14.788 -17.738   9.472  1.00 40.99     0.198 C 
BRANCH  10  11
ATOM     11  O6A JLS C 303     -14.582 -18.648   8.386  1.00 43.00    -0.398 OA
ATOM     12  H6A JLS C 303     -15.435 -18.978   8.125  1.00  0.00     0.209 HD
ENDBRANCH  10  11
ENDBRANCH   6  10
BRANCH   7  13
ATOM     13  O4A JLS C 303     -11.975 -17.397   8.949  1.00 36.96    -0.390 OA
ATOM     14  H4A JLS C 303     -11.826 -17.175   9.859  1.00  0.00     0.210 HD
ENDBRANCH   7  13
BRANCH   8  15
ATOM     15  O3A JLS C 303     -10.915 -15.200   7.579  1.00 40.20    -0.390 OA
ATOM     16  H3A JLS C 303     -10.761 -14.537   6.916  1.00  0.00     0.210 HD
ENDBRANCH   8  15
BRANCH   9  17
ATOM     17  O2A JLS C 303     -11.736 -12.939   9.197  1.00 42.90    -0.388 OA
ATOM     18  H2A JLS C 303     -12.370 -12.302   9.503  1.00  0.00     0.210 HD
ENDBRANCH   9  17
ENDBRANCH   3   4
ENDBRANCH   2   3
ENDBRANCH   1   2
BRANCH   1  19
ATOM     19  N2  JLS C 303     -17.120 -11.266   8.568  1.00 45.49    -0.352 N 
ATOM     20  CAA JLS C 303     -18.059 -10.524   9.150  1.00 47.40     0.218 C 
ATOM     21  OAA JLS C 303     -17.914  -9.989  10.244  1.00 49.90    -0.274 OA
ATOM     22  H2  JLS C 303     -17.364 -11.732   7.694  1.00  0.00     0.163 HD
BRANCH  20  23
ATOM     23  CAB JLS C 303     -19.346 -10.422   8.354  1.00 45.63     0.103 C 
BRANCH  23  24
ATOM     24  CAC JLS C 303     -20.509 -11.149   9.017  1.00 45.31     0.009 C 
BRANCH  24  25
ATOM     25  CAD JLS C 303     -21.886 -10.633   8.652  1.00 47.90     0.000 C 
BRANCH  25  26
ATOM     26  CAE JLS C 303     -22.884 -11.770   8.849  1.00 50.20     0.000 C 
BRANCH  26  27
ATOM     27  CAF JLS C 303     -22.260 -13.006   9.491  1.00 50.32     0.000 C 
BRANCH  27  28
ATOM     28  CAG JLS C 303     -22.888 -14.256   8.889  1.00 50.93     0.000 C 
BRANCH  28  29
ATOM     29  CAH JLS C 303     -24.261 -13.985   8.278  1.00 54.06     0.000 C 
BRANCH  29  30
ATOM     30  CAI JLS C 303     -24.623 -15.032   7.225  1.00 57.04     0.000 C 
BRANCH  30  31
ATOM     31  CAJ JLS C 303     -24.627 -14.476   5.806  1.00 57.21     0.000 C 
BRANCH  31  32
ATOM     32  CAK JLS C 303     -23.202 -14.410   5.256  1.00 59.40     0.000 C 
BRANCH  32  33
ATOM     33  CAL JLS C 303     -22.744 -12.964   5.061  1.00 61.03     0.000 C 
BRANCH  33  34
ATOM     34  CAM JLS C 303     -21.424 -12.648   5.759  1.00 61.76     0.004 C 
BRANCH  34  35
ATOM     35  CAN JLS C 303     -20.463 -13.830   5.664  1.00 61.49     0.027 C 
BRANCH  35  36
ATOM     36  CAO JLS C 303     -19.189 -13.533   6.424  1.00 61.54    -0.031 C 
ATOM     37  CAP JLS C 303     -18.828 -14.170   7.542  1.00 60.21    -0.031 C 
BRANCH  37  38
ATOM     38  CAQ JLS C 303     -19.614 -15.285   8.206  1.00 57.13     0.027 C 
BRANCH  38  39
ATOM     39  CAR JLS C 303     -19.213 -16.644   7.640  1.00 54.04     0.004 C 
BRANCH  39  40
ATOM     40  CAS JLS C 303     -20.400 -17.591   7.494  1.00 53.87     0.000 C 
BRANCH  40  41
ATOM     41  CAT JLS C 303     -21.258 -17.286   6.264  1.00 54.31     0.000 C 
BRANCH  41  42
ATOM     42  CAU JLS C 303     -22.486 -18.187   6.141  1.00 52.87     0.000 C 
BRANCH  42  43
ATOM     43  CAV JLS C 303     -22.264 -19.299   5.116  1.00 51.67    -0.000 C 
BRANCH  43  44
ATOM     44  CAW JLS C 303     -22.616 -20.678   5.664  1.00 51.38    -0.005 C 
ATOM     45  CAX JLS C 303     -22.127 -20.860   7.089  1.00 52.95     0.005 C 
ENDBRANCH  43  44
ENDBRANCH  42  43
ENDBRANCH  41  42
ENDBRANCH  40  41
ENDBRANCH  39  40
ENDBRANCH  38  39
ENDBRANCH  37  38
ENDBRANCH  35  36
ENDBRANCH  34  35
ENDBRANCH  33  34
ENDBRANCH  32  33
ENDBRANCH  31  32
ENDBRANCH  30  31
ENDBRANCH  29  30
ENDBRANCH  28  29
ENDBRANCH  27  28
ENDBRANCH  26  27
ENDBRANCH  25  26
ENDBRANCH  24  25
ENDBRANCH  23  24
ENDBRANCH  20  23
ENDBRANCH   1  19
BRANCH   1  46
ATOM     46  C3  JLS C 303     -14.759 -11.122   7.981  1.00 48.16     0.171 C 
BRANCH  46  47
ATOM     47  C4  JLS C 303     -15.281 -10.073   6.993  1.00 47.00     0.149 C 
BRANCH  47  48
ATOM     48  C5  JLS C 303     -14.205  -9.166   6.372  1.00 48.64     0.034 C 
BRANCH  48  49
ATOM     49  C6  JLS C 303     -14.731  -7.876   5.735  1.00 51.61     0.002 C 
BRANCH  49  50
ATOM     50  C7  JLS C 303     -13.688  -7.084   4.935  1.00 49.49     0.000 C 
BRANCH  50  51
ATOM     51  C8  JLS C 303     -14.353  -6.113   3.962  1.00 49.71     0.000 C 
BRANCH  51  52
ATOM     52  C9  JLS C 303     -15.027  -4.932   4.669  1.00 49.25     0.000 C 
BRANCH  52  53
ATOM     53  C10 JLS C 303     -14.048  -3.795   4.937  1.00 48.85     0.000 C 
BRANCH  53  54
ATOM     54  C11 JLS C 303     -14.771  -2.459   5.059  1.00 51.04     0.000 C 
BRANCH  54  55
ATOM     55  C12 JLS C 303     -14.052  -1.504   6.007  1.00 50.81     0.000 C 
BRANCH  55  56
ATOM     56  C13 JLS C 303     -12.669  -2.041   6.335  1.00 50.05     0.000 C 
BRANCH  56  57
ATOM     57  C14 JLS C 303     -12.477  -2.133   7.842  1.00 51.39     0.000 C 
BRANCH  57  58
ATOM     58  C15 JLS C 303     -11.010  -2.303   8.195  1.00 53.80     0.000 C 
BRANCH  58  59
ATOM     59  C16 JLS C 303     -10.717  -3.707   8.710  1.00 55.42    -0.000 C 
BRANCH  59  60
ATOM     60  C17 JLS C 303      -9.892  -4.465   7.682  1.00 57.06    -0.005 C 
ATOM     61  C18 JLS C 303     -10.749  -4.982   6.550  1.00 59.06     0.005 C 
ENDBRANCH  59  60
ENDBRANCH  58  59
ENDBRANCH  57  58
ENDBRANCH  56  57
ENDBRANCH  55  56
ENDBRANCH  54  55
ENDBRANCH  53  54
ENDBRANCH  52  53
ENDBRANCH  51  52
ENDBRANCH  50  51
ENDBRANCH  49  50
ENDBRANCH  48  49
ENDBRANCH  47  48
BRANCH  47  62
ATOM     62  O4  JLS C 303     -16.062 -10.749   5.996  1.00 47.02    -0.393 OA
ATOM     63  H4  JLS C 303     -15.528 -11.296   5.431  1.00  0.00     0.210 HD
ENDBRANCH  47  62
ENDBRANCH  46  47
BRANCH  46  64
ATOM     64  O3  JLS C 303     -13.521 -10.706   8.557  1.00 51.74    -0.391 OA
ATOM     65  H3  JLS C 303     -13.361 -11.174   9.368  1.00  0.00     0.210 HD
ENDBRANCH  46  64
ENDBRANCH   1  46
TORSDOF 47
ENDMDL
MODEL 6
REMARK VINA RESULT:      -6.3      1.168      2.451
REMARK WARNING: 32 MAX_TORS EXCEEDED!!!
REMARK  47 active torsions:
REMARK  status: ('A' for Active; 'I' for Inactive)
REMARK    1  A    between atoms: CAA_1  and  CAB_2 
REMARK       I    between atoms: CAA_1  and  N2_31 
REMARK    2  A    between atoms: CAB_2  and  CAC_3 
REMARK    3  A    between atoms: CAC_3  and  CAD_4 
REMARK    4  A    between atoms: CAD_4  and  CAE_5 
REMARK    5  A    between atoms: CAE_5  and  CAF_6 
REMARK    6  A    between atoms: CAF_6  and  CAG_7 
REMARK    7  A    between atoms: CAG_7  and  CAH_8 
REMARK    8  A    between atoms: CAH_8  and  CAI_9 
REMARK    9  A    between atoms: CAI_9  and  CAJ_10 
REMARK   10  A    between atoms: CAJ_10  and  CAK_11 
REMARK   11  A    between atoms: CAK_11  and  CAL_12 
REMARK   12  A    between atoms: CAL_12  and  CAM_13 
REMARK   13  A    between atoms: CAM_13  and  CAN_14 
REMARK   14  A    between atoms: CAN_14  and  CAO_15 
REMARK   15  A    between atoms: CAP_16  and  CAQ_17 
REMARK   16  A    between atoms: CAQ_17  and  CAR_18 
REMARK   17  A    between atoms: CAR_18  and  CAS_19 
REMARK   18  A    between atoms: CAS_19  and  CAT_20 
REMARK   19  A    between atoms: CAT_20  and  CAU_21 
REMARK   20  A    between atoms: CAU_21  and  CAV_22 
REMARK   21  A    between atoms: CAV_22  and  CAW_23 
REMARK   22  A    between atoms: C1_26  and  O1A_28 
REMARK   23  A    between atoms: C1_26  and  C2_29 
REMARK   24  A    between atoms: C1A_27  and  O1A_28 
REMARK   25  A    between atoms: C2_29  and  N2_31 
REMARK   26  A    between atoms: C2_29  and  C3_35 
REMARK   27  A    between atoms: C2A_30  and  O2A_33 
REMARK   28  A    between atoms: C3_35  and  C4_41 
REMARK   29  A    between atoms: C3_35  and  O3_37 
REMARK   30  A    between atoms: C3A_36  and  O3A_39 
REMARK   31  A    between atoms: C4_41  and  C5_47 
REMARK   32  A    between atoms: C4_41  and  O4_43 
REMARK   33  A    between atoms: C4A_42  and  O4A_45 
REMARK   34  A    between atoms: C5_47  and  C6_51 
REMARK   35  A    between atoms: C5M_48  and  C6A_52 
REMARK   36  A    between atoms: O6A_49  and  C6A_52 
REMARK   37  A    between atoms: C6_51  and  C7_54 
REMARK   38  A    between atoms: C7_54  and  C8_55 
REMARK   39  A    between atoms: C8_55  and  C9_56 
REMARK   40  A    between atoms: C9_56  and  C10_57 
REMARK   41  A    between atoms: C10_57  and  C11_58 
REMARK   42  A    between atoms: C11_58  and  C12_59 
REMARK   43  A    between atoms: C12_59  and  C13_60 
REMARK   44  A    between atoms: C13_60  and  C14_61 
REMARK   45  A    between atoms: C14_61  and  C15_62 
REMARK   46  A    between atoms: C15_62  and  C16_63 
REMARK   47  A    between atoms: C16_63  and  C17_64 
ROOT
ATOM      1  C2  JLS C 303     -15.827 -11.487   8.879  1.00 46.50     0.139 C 
ENDROOT
BRANCH   1   2
ATOM      2  C1  JLS C 303     -15.506 -12.808   9.572  1.00 46.25     0.199 C 
BRANCH   2   3
ATOM      3  O1A JLS C 303     -14.272 -13.323   9.073  1.00 43.92    -0.356 OA
BRANCH   3   4
ATOM      4  C1A JLS C 303     -13.487 -14.056  10.013  1.00 41.58     0.291 C 
ATOM      5  O5A JLS C 303     -14.018 -15.367  10.258  1.00 41.02    -0.348 OA
ATOM      6  C5M JLS C 303     -14.201 -16.243   9.120  1.00 39.69     0.179 C 
ATOM      7  C4A JLS C 303     -12.877 -16.415   8.357  1.00 37.95     0.180 C 
ATOM      8  C3A JLS C 303     -12.166 -15.069   8.128  1.00 39.43     0.183 C 
ATOM      9  C2A JLS C 303     -12.096 -14.220   9.404  1.00 41.34     0.204 C 
BRANCH   6  10
ATOM     10  C6A JLS C 303     -14.839 -17.541   9.568  1.00 40.99     0.198 C 
BRANCH  10  11
ATOM     11  O6A JLS C 303     -14.708 -18.477   8.492  1.00 43.00    -0.398 OA
ATOM     12  H6A JLS C 303     -14.390 -19.293   8.861  1.00  0.00     0.209 HD
ENDBRANCH  10  11
ENDBRANCH   6  10
BRANCH   7  13
ATOM     13  O4A JLS C 303     -12.022 -17.372   8.985  1.00 36.96    -0.390 OA
ATOM     14  H4A JLS C 303     -12.272 -18.263   8.772  1.00  0.00     0.210 HD
ENDBRANCH   7  13
BRANCH   8  15
ATOM     15  O3A JLS C 303     -10.864 -15.260   7.562  1.00 40.20    -0.390 OA
ATOM     16  H3A JLS C 303     -10.561 -16.151   7.688  1.00  0.00     0.210 HD
ENDBRANCH   8  15
BRANCH   9  17
ATOM     17  O2A JLS C 303     -11.521 -12.932   9.161  1.00 42.90    -0.388 OA
ATOM     18  H2A JLS C 303     -11.230 -12.551   9.981  1.00  0.00     0.210 HD
ENDBRANCH   9  17
ENDBRANCH   3   4
ENDBRANCH   2   3
ENDBRANCH   1   2
BRANCH   1  19
ATOM     19  N2  JLS C 303     -17.078 -11.640   8.152  1.00 45.49    -0.352 N 
ATOM     20  CAA JLS C 303     -18.218 -11.024   8.453  1.00 47.40     0.218 C 
ATOM     21  OAA JLS C 303     -18.362 -10.318   9.445  1.00 49.90    -0.274 OA
ATOM     22  H2  JLS C 303     -17.081 -12.268   7.348  1.00  0.00     0.163 HD
BRANCH  20  23
ATOM     23  CAB JLS C 303     -19.346 -11.299   7.476  1.00 45.63     0.103 C 
BRANCH  23  24
ATOM     24  CAC JLS C 303     -18.937 -12.245   6.354  1.00 45.31     0.009 C 
BRANCH  24  25
ATOM     25  CAD JLS C 303     -19.975 -13.280   5.971  1.00 47.90     0.000 C 
BRANCH  25  26
ATOM     26  CAE JLS C 303     -21.272 -12.939   6.698  1.00 50.20     0.000 C 
BRANCH  26  27
ATOM     27  CAF JLS C 303     -22.422 -12.618   5.748  1.00 50.32     0.000 C 
BRANCH  27  28
ATOM     28  CAG JLS C 303     -22.794 -13.872   4.969  1.00 50.93     0.000 C 
BRANCH  28  29
ATOM     29  CAH JLS C 303     -24.284 -14.196   5.057  1.00 54.06     0.000 C 
BRANCH  29  30
ATOM     30  CAI JLS C 303     -24.574 -15.202   6.169  1.00 57.04     0.000 C 
BRANCH  30  31
ATOM     31  CAJ JLS C 303     -25.127 -14.554   7.433  1.00 57.21     0.000 C 
BRANCH  31  32
ATOM     32  CAK JLS C 303     -24.514 -15.201   8.675  1.00 59.40     0.000 C 
BRANCH  32  33
ATOM     33  CAL JLS C 303     -23.031 -15.510   8.471  1.00 61.03     0.000 C 
BRANCH  33  34
ATOM     34  CAM JLS C 303     -22.656 -16.946   8.827  1.00 61.76     0.004 C 
BRANCH  34  35
ATOM     35  CAN JLS C 303     -22.178 -17.705   7.592  1.00 61.49     0.027 C 
BRANCH  35  36
ATOM     36  CAO JLS C 303     -21.256 -16.835   6.767  1.00 61.54    -0.031 C 
ATOM     37  CAP JLS C 303     -19.924 -16.852   6.880  1.00 60.21    -0.031 C 
BRANCH  37  38
ATOM     38  CAQ JLS C 303     -19.138 -17.743   7.824  1.00 57.13     0.027 C 
BRANCH  38  39
ATOM     39  CAR JLS C 303     -18.646 -16.953   9.034  1.00 54.04     0.004 C 
BRANCH  39  40
ATOM     40  CAS JLS C 303     -18.295 -15.509   8.686  1.00 53.87     0.000 C 
BRANCH  40  41
ATOM     41  CAT JLS C 303     -19.153 -14.489   9.437  1.00 54.31     0.000 C 
BRANCH  41  42
ATOM     42  CAU JLS C 303     -20.038 -15.113  10.515  1.00 52.87     0.000 C 
BRANCH  42  43
ATOM     43  CAV JLS C 303     -20.877 -14.056  11.231  1.00 51.67    -0.000 C 
BRANCH  43  44
ATOM     44  CAW JLS C 303     -22.017 -14.665  12.041  1.00 51.38    -0.005 C 
ATOM     45  CAX JLS C 303     -21.910 -14.317  13.515  1.00 52.95     0.005 C 
ENDBRANCH  43  44
ENDBRANCH  42  43
ENDBRANCH  41  42
ENDBRANCH  40  41
ENDBRANCH  39  40
ENDBRANCH  38  39
ENDBRANCH  37  38
ENDBRANCH  35  36
ENDBRANCH  34  35
ENDBRANCH  33  34
ENDBRANCH  32  33
ENDBRANCH  31  32
ENDBRANCH  30  31
ENDBRANCH  29  30
ENDBRANCH  28  29
ENDBRANCH  27  28
ENDBRANCH  26  27
ENDBRANCH  25  26
ENDBRANCH  24  25
ENDBRANCH  23  24
ENDBRANCH  20  23
ENDBRANCH   1  19
BRANCH   1  46
ATOM     46  C3  JLS C 303     -14.728 -11.044   7.905  1.00 48.16     0.171 C 
BRANCH  46  47
ATOM     47  C4  JLS C 303     -15.194  -9.952   6.936  1.00 47.00     0.149 C 
BRANCH  47  48
ATOM     48  C5  JLS C 303     -14.101  -8.972   6.478  1.00 48.64     0.034 C 
BRANCH  48  49
ATOM     49  C6  JLS C 303     -14.597  -7.789   5.642  1.00 51.61     0.002 C 
BRANCH  49  50
ATOM     50  C7  JLS C 303     -13.527  -7.136   4.756  1.00 49.49     0.000 C 
BRANCH  50  51
ATOM     51  C8  JLS C 303     -14.088  -5.932   4.002  1.00 49.71     0.000 C 
BRANCH  51  52
ATOM     52  C9  JLS C 303     -15.241  -5.250   4.747  1.00 49.25     0.000 C 
BRANCH  52  53
ATOM     53  C10 JLS C 303     -14.769  -4.035   5.536  1.00 48.85     0.000 C 
BRANCH  53  54
ATOM     54  C11 JLS C 303     -13.562  -3.379   4.875  1.00 51.04     0.000 C 
BRANCH  54  55
ATOM     55  C12 JLS C 303     -12.890  -2.363   5.791  1.00 50.81     0.000 C 
BRANCH  55  56
ATOM     56  C13 JLS C 303     -13.561  -2.369   7.155  1.00 50.05     0.000 C 
BRANCH  56  57
ATOM     57  C14 JLS C 303     -12.518  -2.331   8.262  1.00 51.39     0.000 C 
BRANCH  57  58
ATOM     58  C15 JLS C 303     -11.128  -2.594   7.711  1.00 53.80     0.000 C 
BRANCH  58  59
ATOM     59  C16 JLS C 303     -10.593  -3.948   8.165  1.00 55.42    -0.000 C 
BRANCH  59  60
ATOM     60  C17 JLS C 303     -10.356  -4.835   6.954  1.00 57.06    -0.005 C 
ATOM     61  C18 JLS C 303      -8.884  -5.097   6.733  1.00 59.06     0.005 C 
ENDBRANCH  59  60
ENDBRANCH  58  59
ENDBRANCH  57  58
ENDBRANCH  56  57
ENDBRANCH  55  56
ENDBRANCH  54  55
ENDBRANCH  53  54
ENDBRANCH  52  53
ENDBRANCH  51  52
ENDBRANCH  50  51
ENDBRANCH  49  50
ENDBRANCH  48  49
ENDBRANCH  47  48
BRANCH  47  62
ATOM     62  O4  JLS C 303     -15.850 -10.589   5.829  1.00 47.02    -0.393 OA
ATOM     63  H4  JLS C 303     -16.228  -9.960   5.225  1.00  0.00     0.210 HD
ENDBRANCH  47  62
ENDBRANCH  46  47
BRANCH  46  64
ATOM     64  O3  JLS C 303     -13.568 -10.624   8.623  1.00 51.74    -0.391 OA
ATOM     65  H3  JLS C 303     -13.175 -11.361   9.075  1.00  0.00     0.210 HD
ENDBRANCH  46  64
ENDBRANCH   1  46
TORSDOF 47
ENDMDL
MODEL 7
REMARK VINA RESULT:      -6.1      1.268      3.347
REMARK WARNING: 32 MAX_TORS EXCEEDED!!!
REMARK  47 active torsions:
REMARK  status: ('A' for Active; 'I' for Inactive)
REMARK    1  A    between atoms: CAA_1  and  CAB_2 
REMARK       I    between atoms: CAA_1  and  N2_31 
REMARK    2  A    between atoms: CAB_2  and  CAC_3 
REMARK    3  A    between atoms: CAC_3  and  CAD_4 
REMARK    4  A    between atoms: CAD_4  and  CAE_5 
REMARK    5  A    between atoms: CAE_5  and  CAF_6 
REMARK    6  A    between atoms: CAF_6  and  CAG_7 
REMARK    7  A    between atoms: CAG_7  and  CAH_8 
REMARK    8  A    between atoms: CAH_8  and  CAI_9 
REMARK    9  A    between atoms: CAI_9  and  CAJ_10 
REMARK   10  A    between atoms: CAJ_10  and  CAK_11 
REMARK   11  A    between atoms: CAK_11  and  CAL_12 
REMARK   12  A    between atoms: CAL_12  and  CAM_13 
REMARK   13  A    between atoms: CAM_13  and  CAN_14 
REMARK   14  A    between atoms: CAN_14  and  CAO_15 
REMARK   15  A    between atoms: CAP_16  and  CAQ_17 
REMARK   16  A    between atoms: CAQ_17  and  CAR_18 
REMARK   17  A    between atoms: CAR_18  and  CAS_19 
REMARK   18  A    between atoms: CAS_19  and  CAT_20 
REMARK   19  A    between atoms: CAT_20  and  CAU_21 
REMARK   20  A    between atoms: CAU_21  and  CAV_22 
REMARK   21  A    between atoms: CAV_22  and  CAW_23 
REMARK   22  A    between atoms: C1_26  and  O1A_28 
REMARK   23  A    between atoms: C1_26  and  C2_29 
REMARK   24  A    between atoms: C1A_27  and  O1A_28 
REMARK   25  A    between atoms: C2_29  and  N2_31 
REMARK   26  A    between atoms: C2_29  and  C3_35 
REMARK   27  A    between atoms: C2A_30  and  O2A_33 
REMARK   28  A    between atoms: C3_35  and  C4_41 
REMARK   29  A    between atoms: C3_35  and  O3_37 
REMARK   30  A    between atoms: C3A_36  and  O3A_39 
REMARK   31  A    between atoms: C4_41  and  C5_47 
REMARK   32  A    between atoms: C4_41  and  O4_43 
REMARK   33  A    between atoms: C4A_42  and  O4A_45 
REMARK   34  A    between atoms: C5_47  and  C6_51 
REMARK   35  A    between atoms: C5M_48  and  C6A_52 
REMARK   36  A    between atoms: O6A_49  and  C6A_52 
REMARK   37  A    between atoms: C6_51  and  C7_54 
REMARK   38  A    between atoms: C7_54  and  C8_55 
REMARK   39  A    between atoms: C8_55  and  C9_56 
REMARK   40  A    between atoms: C9_56  and  C10_57 
REMARK   41  A    between atoms: C10_57  and  C11_58 
REMARK   42  A    between atoms: C11_58  and  C12_59 
REMARK   43  A    between atoms: C12_59  and  C13_60 
REMARK   44  A    between atoms: C13_60  and  C14_61 
REMARK   45  A    between atoms: C14_61  and  C15_62 
REMARK   46  A    between atoms: C15_62  and  C16_63 
REMARK   47  A    between atoms: C16_63  and  C17_64 
ROOT
ATOM      1  C2  JLS C 303     -15.771 -11.698   8.730  1.00 46.50     0.139 C 
ENDROOT
BRANCH   1   2
ATOM      2  C1  JLS C 303     -15.179 -12.581   9.823  1.00 46.25     0.199 C 
BRANCH   2   3
ATOM      3  O1A JLS C 303     -14.413 -13.629   9.231  1.00 43.92    -0.356 OA
BRANCH   3   4
ATOM      4  C1A JLS C 303     -13.585 -14.368  10.128  1.00 41.58     0.291 C 
ATOM      5  O5A JLS C 303     -14.022 -15.729  10.272  1.00 41.02    -0.348 OA
ATOM      6  C5M JLS C 303     -14.129 -16.532   9.073  1.00 39.69     0.179 C 
ATOM      7  C4A JLS C 303     -12.789 -16.553   8.319  1.00 37.95     0.180 C 
ATOM      8  C3A JLS C 303     -12.176 -15.147   8.195  1.00 39.43     0.183 C 
ATOM      9  C2A JLS C 303     -12.180 -14.388   9.529  1.00 41.34     0.204 C 
BRANCH   6  10
ATOM     10  C6A JLS C 303     -14.675 -17.901   9.419  1.00 40.99     0.198 C 
BRANCH  10  11
ATOM     11  O6A JLS C 303     -14.537 -18.725   8.255  1.00 43.00    -0.398 OA
ATOM     12  H6A JLS C 303     -13.627 -18.992   8.201  1.00  0.00     0.209 HD
ENDBRANCH  10  11
ENDBRANCH   6  10
BRANCH   7  13
ATOM     13  O4A JLS C 303     -11.873 -17.489   8.890  1.00 36.96    -0.390 OA
ATOM     14  H4A JLS C 303     -11.280 -17.073   9.504  1.00  0.00     0.210 HD
ENDBRANCH   7  13
BRANCH   8  15
ATOM     15  O3A JLS C 303     -10.859 -15.202   7.636  1.00 40.20    -0.390 OA
ATOM     16  H3A JLS C 303     -10.888 -15.389   6.705  1.00  0.00     0.210 HD
ENDBRANCH   8  15
BRANCH   9  17
ATOM     17  O2A JLS C 303     -11.698 -13.048   9.386  1.00 42.90    -0.388 OA
ATOM     18  H2A JLS C 303     -12.420 -12.437   9.478  1.00  0.00     0.210 HD
ENDBRANCH   9  17
ENDBRANCH   3   4
ENDBRANCH   2   3
ENDBRANCH   1   2
BRANCH   1  19
ATOM     19  N2  JLS C 303     -16.697 -12.499   7.941  1.00 45.49    -0.352 N 
ATOM     20  CAA JLS C 303     -18.006 -12.283   7.847  1.00 47.40     0.218 C 
ATOM     21  OAA JLS C 303     -18.597 -11.425   8.494  1.00 49.90    -0.274 OA
ATOM     22  H2  JLS C 303     -16.311 -13.287   7.421  1.00  0.00     0.163 HD
BRANCH  20  23
ATOM     23  CAB JLS C 303     -18.718 -13.219   6.888  1.00 45.63     0.103 C 
BRANCH  23  24
ATOM     24  CAC JLS C 303     -19.978 -12.606   6.292  1.00 45.31     0.009 C 
BRANCH  24  25
ATOM     25  CAD JLS C 303     -20.797 -13.535   5.419  1.00 47.90     0.000 C 
BRANCH  25  26
ATOM     26  CAE JLS C 303     -22.272 -13.201   5.628  1.00 50.20     0.000 C 
BRANCH  26  27
ATOM     27  CAF JLS C 303     -23.174 -14.431   5.576  1.00 50.32     0.000 C 
BRANCH  27  28
ATOM     28  CAG JLS C 303     -23.519 -14.861   6.996  1.00 50.93     0.000 C 
BRANCH  28  29
ATOM     29  CAH JLS C 303     -22.685 -16.051   7.466  1.00 54.06     0.000 C 
BRANCH  29  30
ATOM     30  CAI JLS C 303     -22.427 -17.039   6.329  1.00 57.04     0.000 C 
BRANCH  30  31
ATOM     31  CAJ JLS C 303     -20.952 -17.389   6.164  1.00 57.21     0.000 C 
BRANCH  31  32
ATOM     32  CAK JLS C 303     -20.116 -16.693   7.236  1.00 59.40     0.000 C 
BRANCH  32  33
ATOM     33  CAL JLS C 303     -19.134 -17.662   7.896  1.00 61.03     0.000 C 
BRANCH  33  34
ATOM     34  CAM JLS C 303     -19.724 -18.400   9.095  1.00 61.76     0.004 C 
BRANCH  34  35
ATOM     35  CAN JLS C 303     -20.376 -17.421  10.067  1.00 61.49     0.027 C 
BRANCH  35  36
ATOM     36  CAO JLS C 303     -20.082 -17.825  11.495  1.00 61.54    -0.031 C 
ATOM     37  CAP JLS C 303     -18.882 -17.696  12.069  1.00 60.21    -0.031 C 
BRANCH  37  38
ATOM     38  CAQ JLS C 303     -17.650 -17.117  11.399  1.00 57.13     0.027 C 
BRANCH  38  39
ATOM     39  CAR JLS C 303     -17.429 -15.669  11.827  1.00 54.04     0.004 C 
BRANCH  39  40
ATOM     40  CAS JLS C 303     -17.963 -14.669  10.806  1.00 53.87     0.000 C 
BRANCH  40  41
ATOM     41  CAT JLS C 303     -18.420 -13.354  11.441  1.00 54.31     0.000 C 
BRANCH  41  42
ATOM     42  CAU JLS C 303     -19.931 -13.138  11.371  1.00 52.87     0.000 C 
BRANCH  42  43
ATOM     43  CAV JLS C 303     -20.543 -13.844  10.161  1.00 51.67    -0.000 C 
BRANCH  43  44
ATOM     44  CAW JLS C 303     -21.971 -13.389   9.879  1.00 51.38    -0.005 C 
ATOM     45  CAX JLS C 303     -22.012 -11.994   9.282  1.00 52.95     0.005 C 
ENDBRANCH  43  44
ENDBRANCH  42  43
ENDBRANCH  41  42
ENDBRANCH  40  41
ENDBRANCH  39  40
ENDBRANCH  38  39
ENDBRANCH  37  38
ENDBRANCH  35  36
ENDBRANCH  34  35
ENDBRANCH  33  34
ENDBRANCH  32  33
ENDBRANCH  31  32
ENDBRANCH  30  31
ENDBRANCH  29  30
ENDBRANCH  28  29
ENDBRANCH  27  28
ENDBRANCH  26  27
ENDBRANCH  25  26
ENDBRANCH  24  25
ENDBRANCH  23  24
ENDBRANCH  20  23
ENDBRANCH   1  19
BRANCH   1  46
ATOM     46  C3  JLS C 303     -14.704 -11.102   7.802  1.00 48.16     0.171 C 
BRANCH  46  47
ATOM     47  C4  JLS C 303     -15.227  -9.928   6.968  1.00 47.00     0.149 C 
BRANCH  47  48
ATOM     48  C5  JLS C 303     -14.159  -8.916   6.521  1.00 48.64     0.034 C 
BRANCH  48  49
ATOM     49  C6  JLS C 303     -14.661  -7.811   5.587  1.00 51.61     0.002 C 
BRANCH  49  50
ATOM     50  C7  JLS C 303     -13.584  -7.201   4.679  1.00 49.49     0.000 C 
BRANCH  50  51
ATOM     51  C8  JLS C 303     -14.172  -6.129   3.762  1.00 49.71     0.000 C 
BRANCH  51  52
ATOM     52  C9  JLS C 303     -14.825  -4.979   4.537  1.00 49.25     0.000 C 
BRANCH  52  53
ATOM     53  C10 JLS C 303     -13.789  -4.038   5.140  1.00 48.85     0.000 C 
BRANCH  53  54
ATOM     54  C11 JLS C 303     -14.253  -2.588   5.076  1.00 51.04     0.000 C 
BRANCH  54  55
ATOM     55  C12 JLS C 303     -13.578  -1.724   6.135  1.00 50.81     0.000 C 
BRANCH  55  56
ATOM     56  C13 JLS C 303     -12.380  -2.455   6.717  1.00 50.05     0.000 C 
BRANCH  56  57
ATOM     57  C14 JLS C 303     -11.922  -1.787   8.005  1.00 51.39     0.000 C 
BRANCH  57  58
ATOM     58  C15 JLS C 303     -10.610  -2.380   8.489  1.00 53.80     0.000 C 
BRANCH  58  59
ATOM     59  C16 JLS C 303     -10.634  -3.904   8.445  1.00 55.42    -0.000 C 
BRANCH  59  60
ATOM     60  C17 JLS C 303      -9.524  -4.405   7.537  1.00 57.06    -0.005 C 
ATOM     61  C18 JLS C 303     -10.062  -5.275   6.424  1.00 59.06     0.005 C 
ENDBRANCH  59  60
ENDBRANCH  58  59
ENDBRANCH  57  58
ENDBRANCH  56  57
ENDBRANCH  55  56
ENDBRANCH  54  55
ENDBRANCH  53  54
ENDBRANCH  52  53
ENDBRANCH  51  52
ENDBRANCH  50  51
ENDBRANCH  49  50
ENDBRANCH  48  49
ENDBRANCH  47  48
BRANCH  47  62
ATOM     62  O4  JLS C 303     -15.965 -10.463   5.859  1.00 47.02    -0.393 OA
ATOM     63  H4  JLS C 303     -15.835  -9.959   5.064  1.00  0.00     0.210 HD
ENDBRANCH  47  62
ENDBRANCH  46  47
BRANCH  46  64
ATOM     64  O3  JLS C 303     -13.553 -10.719   8.553  1.00 51.74    -0.391 OA
ATOM     65  H3  JLS C 303     -13.023 -11.480   8.758  1.00  0.00     0.210 HD
ENDBRANCH  46  64
ENDBRANCH   1  46
TORSDOF 47
ENDMDL
MODEL 8
REMARK VINA RESULT:      -6.1      1.596      2.838
REMARK WARNING: 32 MAX_TORS EXCEEDED!!!
REMARK  47 active torsions:
REMARK  status: ('A' for Active; 'I' for Inactive)
REMARK    1  A    between atoms: CAA_1  and  CAB_2 
REMARK       I    between atoms: CAA_1  and  N2_31 
REMARK    2  A    between atoms: CAB_2  and  CAC_3 
REMARK    3  A    between atoms: CAC_3  and  CAD_4 
REMARK    4  A    between atoms: CAD_4  and  CAE_5 
REMARK    5  A    between atoms: CAE_5  and  CAF_6 
REMARK    6  A    between atoms: CAF_6  and  CAG_7 
REMARK    7  A    between atoms: CAG_7  and  CAH_8 
REMARK    8  A    between atoms: CAH_8  and  CAI_9 
REMARK    9  A    between atoms: CAI_9  and  CAJ_10 
REMARK   10  A    between atoms: CAJ_10  and  CAK_11 
REMARK   11  A    between atoms: CAK_11  and  CAL_12 
REMARK   12  A    between atoms: CAL_12  and  CAM_13 
REMARK   13  A    between atoms: CAM_13  and  CAN_14 
REMARK   14  A    between atoms: CAN_14  and  CAO_15 
REMARK   15  A    between atoms: CAP_16  and  CAQ_17 
REMARK   16  A    between atoms: CAQ_17  and  CAR_18 
REMARK   17  A    between atoms: CAR_18  and  CAS_19 
REMARK   18  A    between atoms: CAS_19  and  CAT_20 
REMARK   19  A    between atoms: CAT_20  and  CAU_21 
REMARK   20  A    between atoms: CAU_21  and  CAV_22 
REMARK   21  A    between atoms: CAV_22  and  CAW_23 
REMARK   22  A    between atoms: C1_26  and  O1A_28 
REMARK   23  A    between atoms: C1_26  and  C2_29 
REMARK   24  A    between atoms: C1A_27  and  O1A_28 
REMARK   25  A    between atoms: C2_29  and  N2_31 
REMARK   26  A    between atoms: C2_29  and  C3_35 
REMARK   27  A    between atoms: C2A_30  and  O2A_33 
REMARK   28  A    between atoms: C3_35  and  C4_41 
REMARK   29  A    between atoms: C3_35  and  O3_37 
REMARK   30  A    between atoms: C3A_36  and  O3A_39 
REMARK   31  A    between atoms: C4_41  and  C5_47 
REMARK   32  A    between atoms: C4_41  and  O4_43 
REMARK   33  A    between atoms: C4A_42  and  O4A_45 
REMARK   34  A    between atoms: C5_47  and  C6_51 
REMARK   35  A    between atoms: C5M_48  and  C6A_52 
REMARK   36  A    between atoms: O6A_49  and  C6A_52 
REMARK   37  A    between atoms: C6_51  and  C7_54 
REMARK   38  A    between atoms: C7_54  and  C8_55 
REMARK   39  A    between atoms: C8_55  and  C9_56 
REMARK   40  A    between atoms: C9_56  and  C10_57 
REMARK   41  A    between atoms: C10_57  and  C11_58 
REMARK   42  A    between atoms: C11_58  and  C12_59 
REMARK   43  A    between atoms: C12_59  and  C13_60 
REMARK   44  A    between atoms: C13_60  and  C14_61 
REMARK   45  A    between atoms: C14_61  and  C15_62 
REMARK   46  A    between atoms: C15_62  and  C16_63 
REMARK   47  A    between atoms: C16_63  and  C17_64 
ROOT
ATOM      1  C2  JLS C 303     -15.801 -11.454   8.916  1.00 46.50     0.139 C 
ENDROOT
BRANCH   1   2
ATOM      2  C1  JLS C 303     -15.440 -12.733   9.666  1.00 46.25     0.199 C 
BRANCH   2   3
ATOM      3  O1A JLS C 303     -14.247 -13.291   9.115  1.00 43.92    -0.356 OA
BRANCH   3   4
ATOM      4  C1A JLS C 303     -13.438 -14.033  10.028  1.00 41.58     0.291 C 
ATOM      5  O5A JLS C 303     -13.955 -15.352  10.262  1.00 41.02    -0.348 OA
ATOM      6  C5M JLS C 303     -14.154 -16.211   9.113  1.00 39.69     0.179 C 
ATOM      7  C4A JLS C 303     -12.844 -16.360   8.321  1.00 37.95     0.180 C 
ATOM      8  C3A JLS C 303     -12.148 -15.005   8.099  1.00 39.43     0.183 C 
ATOM      9  C2A JLS C 303     -12.058 -14.176   9.388  1.00 41.34     0.204 C 
BRANCH   6  10
ATOM     10  C6A JLS C 303     -14.774 -17.520   9.552  1.00 40.99     0.198 C 
BRANCH  10  11
ATOM     11  O6A JLS C 303     -14.675 -18.432   8.452  1.00 43.00    -0.398 OA
ATOM     12  H6A JLS C 303     -15.515 -18.435   8.008  1.00  0.00     0.209 HD
ENDBRANCH  10  11
ENDBRANCH   6  10
BRANCH   7  13
ATOM     13  O4A JLS C 303     -11.970 -17.321   8.916  1.00 36.96    -0.390 OA
ATOM     14  H4A JLS C 303     -12.288 -17.611   9.763  1.00  0.00     0.210 HD
ENDBRANCH   7  13
BRANCH   8  15
ATOM     15  O3A JLS C 303     -10.857 -15.177   7.505  1.00 40.20    -0.390 OA
ATOM     16  H3A JLS C 303     -10.218 -14.590   7.893  1.00  0.00     0.210 HD
ENDBRANCH   8  15
BRANCH   9  17
ATOM     17  O2A JLS C 303     -11.498 -12.880   9.155  1.00 42.90    -0.388 OA
ATOM     18  H2A JLS C 303     -11.165 -12.524   9.969  1.00  0.00     0.210 HD
ENDBRANCH   9  17
ENDBRANCH   3   4
ENDBRANCH   2   3
ENDBRANCH   1   2
BRANCH   1  19
ATOM     19  N2  JLS C 303     -17.074 -11.660   8.240  1.00 45.49    -0.352 N 
ATOM     20  CAA JLS C 303     -18.160 -10.911   8.412  1.00 47.40     0.218 C 
ATOM     21  OAA JLS C 303     -18.233 -10.006   9.237  1.00 49.90    -0.274 OA
ATOM     22  H2  JLS C 303     -17.137 -12.438   7.584  1.00  0.00     0.163 HD
BRANCH  20  23
ATOM     23  CAB JLS C 303     -19.322 -11.296   7.516  1.00 45.63     0.103 C 
BRANCH  23  24
ATOM     24  CAC JLS C 303     -18.927 -12.289   6.431  1.00 45.31     0.009 C 
BRANCH  24  25
ATOM     25  CAD JLS C 303     -20.049 -13.173   5.925  1.00 47.90     0.000 C 
BRANCH  25  26
ATOM     26  CAE JLS C 303     -21.374 -12.538   6.340  1.00 50.20     0.000 C 
BRANCH  26  27
ATOM     27  CAF JLS C 303     -22.520 -12.877   5.391  1.00 50.32     0.000 C 
BRANCH  27  28
ATOM     28  CAG JLS C 303     -22.618 -14.389   5.241  1.00 50.93     0.000 C 
BRANCH  28  29
ATOM     29  CAH JLS C 303     -23.781 -14.982   6.033  1.00 54.06     0.000 C 
BRANCH  29  30
ATOM     30  CAI JLS C 303     -23.293 -15.981   7.081  1.00 57.04     0.000 C 
BRANCH  30  31
ATOM     31  CAJ JLS C 303     -21.796 -16.253   6.997  1.00 57.21     0.000 C 
BRANCH  31  32
ATOM     32  CAK JLS C 303     -21.148 -16.105   8.373  1.00 59.40     0.000 C 
BRANCH  32  33
ATOM     33  CAL JLS C 303     -21.834 -15.017   9.200  1.00 61.03     0.000 C 
BRANCH  33  34
ATOM     34  CAM JLS C 303     -20.881 -13.920   9.668  1.00 61.76     0.004 C 
BRANCH  34  35
ATOM     35  CAN JLS C 303     -19.429 -14.376   9.551  1.00 61.49     0.027 C 
BRANCH  35  36
ATOM     36  CAO JLS C 303     -18.668 -14.033  10.812  1.00 61.54    -0.031 C 
ATOM     37  CAP JLS C 303     -18.197 -14.947  11.665  1.00 60.21    -0.031 C 
BRANCH  37  38
ATOM     38  CAQ JLS C 303     -18.330 -16.450  11.498  1.00 57.13     0.027 C 
BRANCH  38  39
ATOM     39  CAR JLS C 303     -19.326 -17.021  12.504  1.00 54.04     0.004 C 
BRANCH  39  40
ATOM     40  CAS JLS C 303     -20.702 -17.266  11.891  1.00 53.87     0.000 C 
BRANCH  40  41
ATOM     41  CAT JLS C 303     -21.134 -18.732  11.964  1.00 54.31     0.000 C 
BRANCH  41  42
ATOM     42  CAU JLS C 303     -20.157 -19.690  11.284  1.00 52.87     0.000 C 
BRANCH  42  43
ATOM     43  CAV JLS C 303     -20.017 -19.382   9.794  1.00 51.67    -0.000 C 
BRANCH  43  44
ATOM     44  CAW JLS C 303     -18.566 -19.419   9.324  1.00 51.38    -0.005 C 
ATOM     45  CAX JLS C 303     -18.289 -18.366   8.266  1.00 52.95     0.005 C 
ENDBRANCH  43  44
ENDBRANCH  42  43
ENDBRANCH  41  42
ENDBRANCH  40  41
ENDBRANCH  39  40
ENDBRANCH  38  39
ENDBRANCH  37  38
ENDBRANCH  35  36
ENDBRANCH  34  35
ENDBRANCH  33  34
ENDBRANCH  32  33
ENDBRANCH  31  32
ENDBRANCH  30  31
ENDBRANCH  29  30
ENDBRANCH  28  29
ENDBRANCH  27  28
ENDBRANCH  26  27
ENDBRANCH  25  26
ENDBRANCH  24  25
ENDBRANCH  23  24
ENDBRANCH  20  23
ENDBRANCH   1  19
BRANCH   1  46
ATOM     46  C3  JLS C 303     -14.740 -11.051   7.884  1.00 48.16     0.171 C 
BRANCH  46  47
ATOM     47  C4  JLS C 303     -15.258 -10.029   6.864  1.00 47.00     0.149 C 
BRANCH  47  48
ATOM     48  C5  JLS C 303     -14.218  -9.008   6.375  1.00 48.64     0.034 C 
BRANCH  48  49
ATOM     49  C6  JLS C 303     -14.795  -7.785   5.657  1.00 51.61     0.002 C 
BRANCH  49  50
ATOM     50  C7  JLS C 303     -13.813  -7.068   4.721  1.00 49.49     0.000 C 
BRANCH  50  51
ATOM     51  C8  JLS C 303     -14.378  -5.733   4.239  1.00 49.71     0.000 C 
BRANCH  51  52
ATOM     52  C9  JLS C 303     -15.681  -5.349   4.950  1.00 49.25     0.000 C 
BRANCH  52  53
ATOM     53  C10 JLS C 303     -15.764  -3.850   5.216  1.00 48.85     0.000 C 
BRANCH  53  54
ATOM     54  C11 JLS C 303     -14.469  -3.146   4.829  1.00 51.04     0.000 C 
BRANCH  54  55
ATOM     55  C12 JLS C 303     -14.050  -2.108   5.864  1.00 50.81     0.000 C 
BRANCH  55  56
ATOM     56  C13 JLS C 303     -12.923  -2.656   6.723  1.00 50.05     0.000 C 
BRANCH  56  57
ATOM     57  C14 JLS C 303     -11.990  -3.522   5.889  1.00 51.39     0.000 C 
BRANCH  57  58
ATOM     58  C15 JLS C 303     -11.661  -4.818   6.610  1.00 53.80     0.000 C 
BRANCH  58  59
ATOM     59  C16 JLS C 303     -10.171  -5.132   6.542  1.00 55.42    -0.000 C 
BRANCH  59  60
ATOM     60  C17 JLS C 303      -9.438  -4.368   7.633  1.00 57.06    -0.005 C 
ATOM     61  C18 JLS C 303     -10.247  -4.301   8.907  1.00 59.06     0.005 C 
ENDBRANCH  59  60
ENDBRANCH  58  59
ENDBRANCH  57  58
ENDBRANCH  56  57
ENDBRANCH  55  56
ENDBRANCH  54  55
ENDBRANCH  53  54
ENDBRANCH  52  53
ENDBRANCH  51  52
ENDBRANCH  50  51
ENDBRANCH  49  50
ENDBRANCH  48  49
ENDBRANCH  47  48
BRANCH  47  62
ATOM     62  O4  JLS C 303     -15.863 -10.750   5.780  1.00 47.02    -0.393 OA
ATOM     63  H4  JLS C 303     -16.773 -10.506   5.651  1.00  0.00     0.210 HD
ENDBRANCH  47  62
ENDBRANCH  46  47
BRANCH  46  64
ATOM     64  O3  JLS C 303     -13.569 -10.566   8.539  1.00 51.74    -0.391 OA
ATOM     65  H3  JLS C 303     -13.176  -9.863   8.035  1.00  0.00     0.210 HD
ENDBRANCH  46  64
ENDBRANCH   1  46
TORSDOF 47
ENDMDL
MODEL 9
REMARK VINA RESULT:      -6.0      1.263      3.524
REMARK WARNING: 32 MAX_TORS EXCEEDED!!!
REMARK  47 active torsions:
REMARK  status: ('A' for Active; 'I' for Inactive)
REMARK    1  A    between atoms: CAA_1  and  CAB_2 
REMARK       I    between atoms: CAA_1  and  N2_31 
REMARK    2  A    between atoms: CAB_2  and  CAC_3 
REMARK    3  A    between atoms: CAC_3  and  CAD_4 
REMARK    4  A    between atoms: CAD_4  and  CAE_5 
REMARK    5  A    between atoms: CAE_5  and  CAF_6 
REMARK    6  A    between atoms: CAF_6  and  CAG_7 
REMARK    7  A    between atoms: CAG_7  and  CAH_8 
REMARK    8  A    between atoms: CAH_8  and  CAI_9 
REMARK    9  A    between atoms: CAI_9  and  CAJ_10 
REMARK   10  A    between atoms: CAJ_10  and  CAK_11 
REMARK   11  A    between atoms: CAK_11  and  CAL_12 
REMARK   12  A    between atoms: CAL_12  and  CAM_13 
REMARK   13  A    between atoms: CAM_13  and  CAN_14 
REMARK   14  A    between atoms: CAN_14  and  CAO_15 
REMARK   15  A    between atoms: CAP_16  and  CAQ_17 
REMARK   16  A    between atoms: CAQ_17  and  CAR_18 
REMARK   17  A    between atoms: CAR_18  and  CAS_19 
REMARK   18  A    between atoms: CAS_19  and  CAT_20 
REMARK   19  A    between atoms: CAT_20  and  CAU_21 
REMARK   20  A    between atoms: CAU_21  and  CAV_22 
REMARK   21  A    between atoms: CAV_22  and  CAW_23 
REMARK   22  A    between atoms: C1_26  and  O1A_28 
REMARK   23  A    between atoms: C1_26  and  C2_29 
REMARK   24  A    between atoms: C1A_27  and  O1A_28 
REMARK   25  A    between atoms: C2_29  and  N2_31 
REMARK   26  A    between atoms: C2_29  and  C3_35 
REMARK   27  A    between atoms: C2A_30  and  O2A_33 
REMARK   28  A    between atoms: C3_35  and  C4_41 
REMARK   29  A    between atoms: C3_35  and  O3_37 
REMARK   30  A    between atoms: C3A_36  and  O3A_39 
REMARK   31  A    between atoms: C4_41  and  C5_47 
REMARK   32  A    between atoms: C4_41  and  O4_43 
REMARK   33  A    between atoms: C4A_42  and  O4A_45 
REMARK   34  A    between atoms: C5_47  and  C6_51 
REMARK   35  A    between atoms: C5M_48  and  C6A_52 
REMARK   36  A    between atoms: O6A_49  and  C6A_52 
REMARK   37  A    between atoms: C6_51  and  C7_54 
REMARK   38  A    between atoms: C7_54  and  C8_55 
REMARK   39  A    between atoms: C8_55  and  C9_56 
REMARK   40  A    between atoms: C9_56  and  C10_57 
REMARK   41  A    between atoms: C10_57  and  C11_58 
REMARK   42  A    between atoms: C11_58  and  C12_59 
REMARK   43  A    between atoms: C12_59  and  C13_60 
REMARK   44  A    between atoms: C13_60  and  C14_61 
REMARK   45  A    between atoms: C14_61  and  C15_62 
REMARK   46  A    between atoms: C15_62  and  C16_63 
REMARK   47  A    between atoms: C16_63  and  C17_64 
ROOT
ATOM      1  C2  JLS C 303     -15.772 -11.489   9.033  1.00 46.50     0.139 C 
ENDROOT
BRANCH   1   2
ATOM      2  C1  JLS C 303     -15.596 -12.897   9.592  1.00 46.25     0.199 C 
BRANCH   2   3
ATOM      3  O1A JLS C 303     -14.389 -13.466   9.087  1.00 43.92    -0.356 OA
BRANCH   3   4
ATOM      4  C1A JLS C 303     -13.616 -14.207  10.032  1.00 41.58     0.291 C 
ATOM      5  O5A JLS C 303     -14.099 -15.550  10.192  1.00 41.02    -0.348 OA
ATOM      6  C5M JLS C 303     -14.188 -16.379   9.009  1.00 39.69     0.179 C 
ATOM      7  C4A JLS C 303     -12.823 -16.458   8.305  1.00 37.95     0.180 C 
ATOM      8  C3A JLS C 303     -12.164 -15.074   8.170  1.00 39.43     0.183 C 
ATOM      9  C2A JLS C 303     -12.192 -14.282   9.485  1.00 41.34     0.204 C 
BRANCH   6  10
ATOM     10  C6A JLS C 303     -14.787 -17.722   9.368  1.00 40.99     0.198 C 
BRANCH  10  11
ATOM     11  O6A JLS C 303     -15.252 -17.637  10.720  1.00 43.00    -0.398 OA
ATOM     12  H6A JLS C 303     -15.871 -16.917  10.764  1.00  0.00     0.209 HD
ENDBRANCH  10  11
ENDBRANCH   6  10
BRANCH   7  13
ATOM     13  O4A JLS C 303     -11.956 -17.406   8.931  1.00 36.96    -0.390 OA
ATOM     14  H4A JLS C 303     -11.069 -17.346   8.599  1.00  0.00     0.210 HD
ENDBRANCH   7  13
BRANCH   8  15
ATOM     15  O3A JLS C 303     -10.830 -15.182   7.661  1.00 40.20    -0.390 OA
ATOM     16  H3A JLS C 303     -10.409 -14.332   7.616  1.00  0.00     0.210 HD
ENDBRANCH   8  15
BRANCH   9  17
ATOM     17  O2A JLS C 303     -11.666 -12.961   9.327  1.00 42.90    -0.388 OA
ATOM     18  H2A JLS C 303     -12.248 -12.448   8.780  1.00  0.00     0.210 HD
ENDBRANCH   9  17
ENDBRANCH   3   4
ENDBRANCH   2   3
ENDBRANCH   1   2
BRANCH   1  19
ATOM     19  N2  JLS C 303     -17.087 -11.399   8.414  1.00 45.49    -0.352 N 
ATOM     20  CAA JLS C 303     -18.034 -10.529   8.753  1.00 47.40     0.218 C 
ATOM     21  OAA JLS C 303     -17.931  -9.753   9.697  1.00 49.90    -0.274 OA
ATOM     22  H2  JLS C 303     -17.298 -12.055   7.662  1.00  0.00     0.163 HD
BRANCH  20  23
ATOM     23  CAB JLS C 303     -19.276 -10.600   7.885  1.00 45.63     0.103 C 
BRANCH  23  24
ATOM     24  CAC JLS C 303     -19.241 -11.758   6.897  1.00 45.31     0.009 C 
BRANCH  24  25
ATOM     25  CAD JLS C 303     -20.515 -12.573   6.812  1.00 47.90     0.000 C 
BRANCH  25  26
ATOM     26  CAE JLS C 303     -20.506 -13.326   5.484  1.00 50.20     0.000 C 
BRANCH  26  27
ATOM     27  CAF JLS C 303     -21.900 -13.746   5.026  1.00 50.32     0.000 C 
BRANCH  27  28
ATOM     28  CAG JLS C 303     -22.911 -13.394   6.108  1.00 50.93     0.000 C 
BRANCH  28  29
ATOM     29  CAH JLS C 303     -23.660 -14.618   6.631  1.00 54.06     0.000 C 
BRANCH  29  30
ATOM     30  CAI JLS C 303     -22.977 -15.207   7.865  1.00 57.04     0.000 C 
BRANCH  30  31
ATOM     31  CAJ JLS C 303     -22.714 -16.703   7.745  1.00 57.21     0.000 C 
BRANCH  31  32
ATOM     32  CAK JLS C 303     -21.627 -16.972   6.706  1.00 59.40     0.000 C 
BRANCH  32  33
ATOM     33  CAL JLS C 303     -20.296 -17.332   7.367  1.00 61.03     0.000 C 
BRANCH  33  34
ATOM     34  CAM JLS C 303     -19.340 -16.148   7.489  1.00 61.76     0.004 C 
BRANCH  34  35
ATOM     35  CAN JLS C 303     -18.777 -16.048   8.905  1.00 61.49     0.027 C 
BRANCH  35  36
ATOM     36  CAO JLS C 303     -19.901 -15.960   9.912  1.00 61.54    -0.031 C 
ATOM     37  CAP JLS C 303     -20.284 -14.821  10.497  1.00 60.21    -0.031 C 
BRANCH  37  38
ATOM     38  CAQ JLS C 303     -19.675 -13.456  10.235  1.00 57.13     0.027 C 
BRANCH  38  39
ATOM     39  CAR JLS C 303     -20.173 -12.434  11.253  1.00 54.04     0.004 C 
BRANCH  39  40
ATOM     40  CAS JLS C 303     -21.515 -11.823  10.860  1.00 53.87     0.000 C 
BRANCH  40  41
ATOM     41  CAT JLS C 303     -21.610 -10.332  11.189  1.00 54.31     0.000 C 
BRANCH  41  42
ATOM     42  CAU JLS C 303     -22.029  -9.471   9.997  1.00 52.87     0.000 C 
BRANCH  42  43
ATOM     43  CAV JLS C 303     -22.670 -10.314   8.896  1.00 51.67    -0.000 C 
BRANCH  43  44
ATOM     44  CAW JLS C 303     -22.934  -9.513   7.625  1.00 51.38    -0.005 C 
ATOM     45  CAX JLS C 303     -24.034 -10.134   6.785  1.00 52.95     0.005 C 
ENDBRANCH  43  44
ENDBRANCH  42  43
ENDBRANCH  41  42
ENDBRANCH  40  41
ENDBRANCH  39  40
ENDBRANCH  38  39
ENDBRANCH  37  38
ENDBRANCH  35  36
ENDBRANCH  34  35
ENDBRANCH  33  34
ENDBRANCH  32  33
ENDBRANCH  31  32
ENDBRANCH  30  31
ENDBRANCH  29  30
ENDBRANCH  28  29
ENDBRANCH  27  28
ENDBRANCH  26  27
ENDBRANCH  25  26
ENDBRANCH  24  25
ENDBRANCH  23  24
ENDBRANCH  20  23
ENDBRANCH   1  19
BRANCH   1  46
ATOM     46  C3  JLS C 303     -14.701 -11.121   7.998  1.00 48.16     0.171 C 
BRANCH  46  47
ATOM     47  C4  JLS C 303     -15.198 -10.112   6.958  1.00 47.00     0.149 C 
BRANCH  47  48
ATOM     48  C5  JLS C 303     -14.126  -9.156   6.409  1.00 48.64     0.034 C 
BRANCH  48  49
ATOM     49  C6  JLS C 303     -14.666  -7.916   5.690  1.00 51.61     0.002 C 
BRANCH  49  50
ATOM     50  C7  JLS C 303     -13.658  -6.768   5.546  1.00 49.49     0.000 C 
BRANCH  50  51
ATOM     51  C8  JLS C 303     -13.658  -6.203   4.126  1.00 49.71     0.000 C 
BRANCH  51  52
ATOM     52  C9  JLS C 303     -13.626  -4.671   4.098  1.00 49.25     0.000 C 
BRANCH  52  53
ATOM     53  C10 JLS C 303     -14.018  -4.068   5.441  1.00 48.85     0.000 C 
BRANCH  53  54
ATOM     54  C11 JLS C 303     -14.568  -2.656   5.276  1.00 51.04     0.000 C 
BRANCH  54  55
ATOM     55  C12 JLS C 303     -13.862  -1.656   6.185  1.00 50.81     0.000 C 
BRANCH  55  56
ATOM     56  C13 JLS C 303     -12.455  -2.139   6.496  1.00 50.05     0.000 C 
BRANCH  56  57
ATOM     57  C14 JLS C 303     -12.298  -2.398   7.986  1.00 51.39     0.000 C 
BRANCH  57  58
ATOM     58  C15 JLS C 303     -10.840  -2.623   8.349  1.00 53.80     0.000 C 
BRANCH  58  59
ATOM     59  C16 JLS C 303     -10.519  -4.107   8.486  1.00 55.42    -0.000 C 
BRANCH  59  60
ATOM     60  C17 JLS C 303     -10.378  -4.727   7.106  1.00 57.06    -0.005 C 
ATOM     61  C18 JLS C 303      -8.934  -5.019   6.770  1.00 59.06     0.005 C 
ENDBRANCH  59  60
ENDBRANCH  58  59
ENDBRANCH  57  58
ENDBRANCH  56  57
ENDBRANCH  55  56
ENDBRANCH  54  55
ENDBRANCH  53  54
ENDBRANCH  52  53
ENDBRANCH  51  52
ENDBRANCH  50  51
ENDBRANCH  49  50
ENDBRANCH  48  49
ENDBRANCH  47  48
BRANCH  47  62
ATOM     62  O4  JLS C 303     -15.862 -10.839   5.913  1.00 47.02    -0.393 OA
ATOM     63  H4  JLS C 303     -16.785 -10.618   5.853  1.00  0.00     0.210 HD
ENDBRANCH  47  62
ENDBRANCH  46  47
BRANCH  46  64
ATOM     64  O3  JLS C 303     -13.525 -10.642   8.650  1.00 51.74    -0.391 OA
ATOM     65  H3  JLS C 303     -12.984 -11.370   8.932  1.00  0.00     0.210 HD
ENDBRANCH  46  64
ENDBRANCH   1  46
TORSDOF 47
ENDMDL
