MODEL 1
REMARK VINA RESULT:      -6.3      0.000      0.000
REMARK WARNING: 32 MAX_TORS EXCEEDED!!!
REMARK  38 active torsions:
REMARK  status: ('A' for Active; 'I' for Inactive)
REMARK    1  A    between atoms: C2H_2  and  C2G_3 
REMARK    2  A    between atoms: C2G_3  and  C2F_4 
REMARK    3  A    between atoms: C2F_4  and  C2E_5 
REMARK    4  A    between atoms: C2E_5  and  C2D_6 
REMARK    5  A    between atoms: C2D_6  and  C2C_7 
REMARK    6  A    between atoms: C2C_7  and  C2B_8 
REMARK    7  A    between atoms: C2B_8  and  C2A_9 
REMARK    8  A    between atoms: C29_10  and  C28_11 
REMARK    9  A    between atoms: C28_11  and  C27_12 
REMARK   10  A    between atoms: C27_12  and  C26_13 
REMARK   11  A    between atoms: C26_13  and  C25_14 
REMARK   12  A    between atoms: C25_14  and  C24_15 
REMARK   13  A    between atoms: C24_15  and  C23_16 
REMARK   14  A    between atoms: C23_16  and  C22_17 
REMARK   15  A    between atoms: C22_17  and  C21_18 
REMARK   16  A    between atoms: C21_18  and  O21_20 
REMARK   17  A    between atoms: O21_20  and  C2_21 
REMARK   18  A    between atoms: C2_21  and  C3_28 
REMARK   19  A    between atoms: C2_21  and  C1_22 
REMARK   20  A    between atoms: C1_22  and  O11_23 
REMARK   21  A    between atoms: O11_23  and  P_24 
REMARK   22  A    between atoms: C3_28  and  O31_29 
REMARK   23  A    between atoms: O31_29  and  C31_30 
REMARK   24  A    between atoms: C31_30  and  C32_32 
REMARK   25  A    between atoms: C32_32  and  C33_33 
REMARK   26  A    between atoms: C33_33  and  C34_34 
REMARK   27  A    between atoms: C34_34  and  C35_35 
REMARK   28  A    between atoms: C35_35  and  C36_36 
REMARK   29  A    between atoms: C36_36  and  C37_37 
REMARK   30  A    between atoms: C37_37  and  C38_38 
REMARK   31  A    between atoms: C38_38  and  C39_39 
REMARK   32  A    between atoms: C3A_40  and  C3B_41 
REMARK   33  A    between atoms: C3B_41  and  C3C_42 
REMARK   34  A    between atoms: C3C_42  and  C3D_43 
REMARK   35  A    between atoms: C3D_43  and  C3E_44 
REMARK   36  A    between atoms: C3E_44  and  C3F_45 
REMARK   37  A    between atoms: C3F_45  and  C3G_46 
REMARK   38  A    between atoms: C3G_46  and  C3H_47 
ROOT
ATOM      1  C2  MX7 A 305     -12.542 -15.418   7.949  1.00 54.48     0.180 C 
ENDROOT
BRANCH   1   2
ATOM      2  C3  MX7 A 305     -12.730 -16.756   8.650  1.00 53.94     0.213 C 
BRANCH   2   3
ATOM      3  O31 MX7 A 305     -14.022 -16.789   9.283  1.00 55.94    -0.319 OA
BRANCH   3   4
ATOM      4  C31 MX7 A 305     -14.503 -18.072   9.307  1.00 55.30     0.258 C 
ATOM      5  O32 MX7 A 305     -14.057 -18.975   8.596  1.00 57.61    -0.265 OA
BRANCH   4   6
ATOM      6  C32 MX7 A 305     -15.676 -18.359  10.261  1.00 51.54     0.111 C 
BRANCH   6   7
ATOM      7  C33 MX7 A 305     -17.028 -17.872   9.725  1.00 49.21     0.010 C 
BRANCH   7   8
ATOM      8  C34 MX7 A 305     -17.514 -16.667  10.555  1.00 47.43     0.000 C 
BRANCH   8   9
ATOM      9  C35 MX7 A 305     -18.744 -15.990   9.917  1.00 45.86     0.000 C 
BRANCH   9  10
ATOM     10  C36 MX7 A 305     -18.782 -16.304   8.414  1.00 44.09     0.000 C 
BRANCH  10  11
ATOM     11  C37 MX7 A 305     -19.440 -15.143   7.636  1.00 44.79     0.004 C 
BRANCH  11  12
ATOM     12  C38 MX7 A 305     -18.590 -13.841   7.572  1.00 45.27     0.027 C 
BRANCH  12  13
ATOM     13  C39 MX7 A 305     -19.004 -13.048   6.490  1.00 44.20    -0.031 C 
ATOM     14  C3A MX7 A 305     -19.233 -11.672   6.712  1.00 43.34    -0.031 C 
BRANCH  14  15
ATOM     15  C3B MX7 A 305     -19.001 -11.169   7.997  1.00 44.12     0.027 C 
BRANCH  15  16
ATOM     16  C3C MX7 A 305     -19.921  -9.957   8.261  1.00 42.90     0.004 C 
BRANCH  16  17
ATOM     17  C3D MX7 A 305     -20.216  -9.873   9.764  1.00 42.71     0.000 C 
BRANCH  17  18
ATOM     18  C3E MX7 A 305     -19.602 -11.042  10.531  1.00 42.50     0.000 C 
BRANCH  18  19
ATOM     19  C3F MX7 A 305     -18.432 -10.548  11.408  1.00 41.47     0.000 C 
BRANCH  19  20
ATOM     20  C3G MX7 A 305     -17.543 -11.748  11.811  1.00 40.90    -0.000 C 
BRANCH  20  21
ATOM     21  C3H MX7 A 305     -16.690 -12.257  10.631  1.00 40.73    -0.005 C 
ATOM     22  C3I MX7 A 305     -15.831 -13.464  11.049  1.00 38.16     0.005 C 
ENDBRANCH  20  21
ENDBRANCH  19  20
ENDBRANCH  18  19
ENDBRANCH  17  18
ENDBRANCH  16  17
ENDBRANCH  15  16
ENDBRANCH  14  15
ENDBRANCH  12  13
ENDBRANCH  11  12
ENDBRANCH  10  11
ENDBRANCH   9  10
ENDBRANCH   8   9
ENDBRANCH   7   8
ENDBRANCH   6   7
ENDBRANCH   4   6
ENDBRANCH   3   4
ENDBRANCH   2   3
ENDBRANCH   1   2
BRANCH   1  23
ATOM     23  C1  MX7 A 305     -12.309 -15.657   6.444  1.00 57.68     0.217 C 
BRANCH  23  24
ATOM     24  O11 MX7 A 305     -12.714 -14.488   5.721  1.00 59.71    -0.280 OA
BRANCH  24  25
ATOM     25  P   MX7 A 305     -12.261 -14.174   4.205  1.00 63.58     0.422 P 
ATOM     26  O13 MX7 A 305     -11.017 -15.237   4.038  1.00 61.39    -0.617 OA
ATOM     27  O12 MX7 A 305     -11.821 -12.760   4.130  1.00 62.00    -0.617 OA
ATOM     28  O14 MX7 A 305     -13.363 -14.622   3.327  1.00 63.78    -0.617 OA
ENDBRANCH  24  25
ENDBRANCH  23  24
ENDBRANCH   1  23
BRANCH   1  29
ATOM     29  O21 MX7 A 305     -11.427 -14.732   8.547  1.00 51.80    -0.312 OA
BRANCH  29  30
ATOM     30  C21 MX7 A 305     -11.602 -13.378   8.590  1.00 50.47     0.259 C 
ATOM     31  O22 MX7 A 305     -10.693 -12.562   8.481  1.00 51.01    -0.265 OA
BRANCH  30  32
ATOM     32  C22 MX7 A 305     -13.039 -12.891   8.784  1.00 48.47     0.111 C 
BRANCH  32  33
ATOM     33  C23 MX7 A 305     -13.184 -11.488   8.189  1.00 47.13     0.010 C 
BRANCH  33  34
ATOM     34  C24 MX7 A 305     -14.243 -11.432   7.080  1.00 45.79     0.000 C 
BRANCH  34  35
ATOM     35  C25 MX7 A 305     -15.503 -10.673   7.566  1.00 44.53     0.000 C 
BRANCH  35  36
ATOM     36  C26 MX7 A 305     -15.892  -9.481   6.642  1.00 43.27     0.000 C 
BRANCH  36  37
ATOM     37  C27 MX7 A 305     -14.630  -8.813   6.079  1.00 43.49     0.004 C 
BRANCH  37  38
ATOM     38  C28 MX7 A 305     -14.888  -7.362   5.660  1.00 41.75     0.027 C 
BRANCH  38  39
ATOM     39  C29 MX7 A 305     -14.596  -7.231   4.301  1.00 41.31    -0.031 C 
ATOM     40  C2A MX7 A 305     -13.909  -6.061   3.933  1.00 41.39    -0.031 C 
BRANCH  40  41
ATOM     41  C2B MX7 A 305     -13.616  -5.186   4.980  1.00 41.30     0.027 C 
BRANCH  41  42
ATOM     42  C2C MX7 A 305     -14.474  -3.894   4.871  1.00 41.60     0.004 C 
BRANCH  42  43
ATOM     43  C2D MX7 A 305     -13.684  -2.689   5.427  1.00 41.45     0.000 C 
BRANCH  43  44
ATOM     44  C2E MX7 A 305     -12.296  -3.096   5.957  1.00 41.44     0.000 C 
BRANCH  44  45
ATOM     45  C2F MX7 A 305     -12.089  -2.461   7.353  1.00 41.85     0.000 C 
BRANCH  45  46
ATOM     46  C2G MX7 A 305     -10.750  -2.868   8.004  1.00 42.39    -0.000 C 
BRANCH  46  47
ATOM     47  C2H MX7 A 305     -10.494  -4.384   7.849  1.00 42.18    -0.005 C 
ATOM     48  C2I MX7 A 305      -9.115  -4.659   7.249  1.00 44.20     0.005 C 
ENDBRANCH  46  47
ENDBRANCH  45  46
ENDBRANCH  44  45
ENDBRANCH  43  44
ENDBRANCH  42  43
ENDBRANCH  41  42
ENDBRANCH  40  41
ENDBRANCH  38  39
ENDBRANCH  37  38
ENDBRANCH  36  37
ENDBRANCH  35  36
ENDBRANCH  34  35
ENDBRANCH  33  34
ENDBRANCH  32  33
ENDBRANCH  30  32
ENDBRANCH  29  30
ENDBRANCH   1  29
TORSDOF 38
ENDMDL
MODEL 2
REMARK VINA RESULT:      -6.2      4.194      6.839
REMARK WARNING: 32 MAX_TORS EXCEEDED!!!
REMARK  38 active torsions:
REMARK  status: ('A' for Active; 'I' for Inactive)
REMARK    1  A    between atoms: C2H_2  and  C2G_3 
REMARK    2  A    between atoms: C2G_3  and  C2F_4 
REMARK    3  A    between atoms: C2F_4  and  C2E_5 
REMARK    4  A    between atoms: C2E_5  and  C2D_6 
REMARK    5  A    between atoms: C2D_6  and  C2C_7 
REMARK    6  A    between atoms: C2C_7  and  C2B_8 
REMARK    7  A    between atoms: C2B_8  and  C2A_9 
REMARK    8  A    between atoms: C29_10  and  C28_11 
REMARK    9  A    between atoms: C28_11  and  C27_12 
REMARK   10  A    between atoms: C27_12  and  C26_13 
REMARK   11  A    between atoms: C26_13  and  C25_14 
REMARK   12  A    between atoms: C25_14  and  C24_15 
REMARK   13  A    between atoms: C24_15  and  C23_16 
REMARK   14  A    between atoms: C23_16  and  C22_17 
REMARK   15  A    between atoms: C22_17  and  C21_18 
REMARK   16  A    between atoms: C21_18  and  O21_20 
REMARK   17  A    between atoms: O21_20  and  C2_21 
REMARK   18  A    between atoms: C2_21  and  C3_28 
REMARK   19  A    between atoms: C2_21  and  C1_22 
REMARK   20  A    between atoms: C1_22  and  O11_23 
REMARK   21  A    between atoms: O11_23  and  P_24 
REMARK   22  A    between atoms: C3_28  and  O31_29 
REMARK   23  A    between atoms: O31_29  and  C31_30 
REMARK   24  A    between atoms: C31_30  and  C32_32 
REMARK   25  A    between atoms: C32_32  and  C33_33 
REMARK   26  A    between atoms: C33_33  and  C34_34 
REMARK   27  A    between atoms: C34_34  and  C35_35 
REMARK   28  A    between atoms: C35_35  and  C36_36 
REMARK   29  A    between atoms: C36_36  and  C37_37 
REMARK   30  A    between atoms: C37_37  and  C38_38 
REMARK   31  A    between atoms: C38_38  and  C39_39 
REMARK   32  A    between atoms: C3A_40  and  C3B_41 
REMARK   33  A    between atoms: C3B_41  and  C3C_42 
REMARK   34  A    between atoms: C3C_42  and  C3D_43 
REMARK   35  A    between atoms: C3D_43  and  C3E_44 
REMARK   36  A    between atoms: C3E_44  and  C3F_45 
REMARK   37  A    between atoms: C3F_45  and  C3G_46 
REMARK   38  A    between atoms: C3G_46  and  C3H_47 
ROOT
ATOM      1  C2  MX7 A 305     -14.604 -11.648   8.469  1.00 54.48     0.180 C 
ENDROOT
BRANCH   1   2
ATOM      2  C3  MX7 A 305     -15.828 -12.354   9.033  1.00 53.94     0.213 C 
BRANCH   2   3
ATOM      3  O31 MX7 A 305     -16.725 -11.382   9.602  1.00 55.94    -0.319 OA
BRANCH   3   4
ATOM      4  C31 MX7 A 305     -18.009 -11.627   9.190  1.00 55.30     0.258 C 
ATOM      5  O32 MX7 A 305     -18.995 -11.077   9.683  1.00 57.61    -0.265 OA
BRANCH   4   6
ATOM      6  C32 MX7 A 305     -18.193 -12.667   8.070  1.00 51.54     0.111 C 
BRANCH   6   7
ATOM      7  C33 MX7 A 305     -18.849 -12.091   6.808  1.00 49.21     0.010 C 
BRANCH   7   8
ATOM      8  C34 MX7 A 305     -19.414 -13.239   5.947  1.00 47.43     0.000 C 
BRANCH   8   9
ATOM      9  C35 MX7 A 305     -20.878 -13.561   6.311  1.00 45.86     0.000 C 
BRANCH   9  10
ATOM     10  C36 MX7 A 305     -21.799 -13.144   5.155  1.00 44.09     0.000 C 
BRANCH  10  11
ATOM     11  C37 MX7 A 305     -22.919 -14.188   4.954  1.00 44.79     0.004 C 
BRANCH  11  12
ATOM     12  C38 MX7 A 305     -24.342 -13.588   4.764  1.00 45.27     0.027 C 
BRANCH  12  13
ATOM     13  C39 MX7 A 305     -24.265 -12.191   4.653  1.00 44.20    -0.031 C 
ATOM     14  C3A MX7 A 305     -24.431 -11.606   3.379  1.00 43.34    -0.031 C 
BRANCH  14  15
ATOM     15  C3B MX7 A 305     -24.698 -12.455   2.298  1.00 44.12     0.027 C 
BRANCH  15  16
ATOM     16  C3C MX7 A 305     -23.906 -11.990   1.057  1.00 42.90     0.004 C 
BRANCH  16  17
ATOM     17  C3D MX7 A 305     -23.372 -10.573   1.308  1.00 42.71     0.000 C 
BRANCH  17  18
ATOM     18  C3E MX7 A 305     -23.754  -9.614   0.183  1.00 42.50     0.000 C 
BRANCH  18  19
ATOM     19  C3F MX7 A 305     -24.466  -8.372   0.760  1.00 41.47     0.000 C 
BRANCH  19  20
ATOM     20  C3G MX7 A 305     -24.171  -8.261   2.274  1.00 40.90    -0.000 C 
BRANCH  20  21
ATOM     21  C3H MX7 A 305     -23.200  -7.106   2.591  1.00 40.73    -0.005 C 
ATOM     22  C3I MX7 A 305     -23.299  -5.993   1.532  1.00 38.16     0.005 C 
ENDBRANCH  20  21
ENDBRANCH  19  20
ENDBRANCH  18  19
ENDBRANCH  17  18
ENDBRANCH  16  17
ENDBRANCH  15  16
ENDBRANCH  14  15
ENDBRANCH  12  13
ENDBRANCH  11  12
ENDBRANCH  10  11
ENDBRANCH   9  10
ENDBRANCH   8   9
ENDBRANCH   7   8
ENDBRANCH   6   7
ENDBRANCH   4   6
ENDBRANCH   3   4
ENDBRANCH   2   3
ENDBRANCH   1   2
BRANCH   1  23
ATOM     23  C1  MX7 A 305     -13.432 -11.783   9.461  1.00 57.68     0.217 C 
BRANCH  23  24
ATOM     24  O11 MX7 A 305     -12.292 -12.300   8.762  1.00 59.71    -0.280 OA
BRANCH  24  25
ATOM     25  P   MX7 A 305     -11.365 -13.494   9.327  1.00 63.58     0.422 P 
ATOM     26  O13 MX7 A 305     -10.917 -14.216   7.918  1.00 61.39    -0.617 OA
ATOM     27  O12 MX7 A 305     -12.199 -14.372  10.181  1.00 62.00    -0.617 OA
ATOM     28  O14 MX7 A 305     -10.165 -12.863   9.916  1.00 63.78    -0.617 OA
ENDBRANCH  24  25
ENDBRANCH  23  24
ENDBRANCH   1  23
BRANCH   1  29
ATOM     29  O21 MX7 A 305     -14.932 -10.267   8.233  1.00 51.80    -0.312 OA
BRANCH  29  30
ATOM     30  C21 MX7 A 305     -14.607  -9.854   6.973  1.00 50.47     0.259 C 
ATOM     31  O22 MX7 A 305     -13.634 -10.257   6.344  1.00 51.01    -0.265 OA
BRANCH  30  32
ATOM     32  C22 MX7 A 305     -15.546  -8.827   6.338  1.00 48.47     0.111 C 
BRANCH  32  33
ATOM     33  C23 MX7 A 305     -14.850  -8.173   5.141  1.00 47.13     0.010 C 
BRANCH  33  34
ATOM     34  C24 MX7 A 305     -15.313  -6.727   4.916  1.00 45.79     0.000 C 
BRANCH  34  35
ATOM     35  C25 MX7 A 305     -14.337  -5.983   3.972  1.00 44.53     0.000 C 
BRANCH  35  36
ATOM     36  C26 MX7 A 305     -13.668  -4.745   4.639  1.00 43.27     0.000 C 
BRANCH  36  37
ATOM     37  C27 MX7 A 305     -12.802  -5.185   5.828  1.00 43.49     0.004 C 
BRANCH  37  38
ATOM     38  C28 MX7 A 305     -11.430  -4.506   5.822  1.00 41.75     0.027 C 
BRANCH  38  39
ATOM     39  C29 MX7 A 305     -10.676  -5.011   6.883  1.00 41.31    -0.031 C 
ATOM     40  C2A MX7 A 305     -10.350  -4.091   7.894  1.00 41.39    -0.031 C 
BRANCH  40  41
ATOM     41  C2B MX7 A 305     -10.822  -2.793   7.697  1.00 41.30     0.027 C 
BRANCH  41  42
ATOM     42  C2C MX7 A 305     -12.028  -2.499   8.633  1.00 41.60     0.004 C 
BRANCH  42  43
ATOM     43  C2D MX7 A 305     -13.288  -2.203   7.791  1.00 41.45     0.000 C 
BRANCH  43  44
ATOM     44  C2E MX7 A 305     -12.970  -1.363   6.540  1.00 41.44     0.000 C 
BRANCH  44  45
ATOM     45  C2F MX7 A 305     -14.288  -1.085   5.777  1.00 41.85     0.000 C 
BRANCH  45  46
ATOM     46  C2G MX7 A 305     -14.703   0.401   5.821  1.00 42.39    -0.000 C 
BRANCH  46  47
ATOM     47  C2H MX7 A 305     -15.431   0.815   4.523  1.00 42.18    -0.005 C 
ATOM     48  C2I MX7 A 305     -15.223  -0.216   3.414  1.00 44.20     0.005 C 
ENDBRANCH  46  47
ENDBRANCH  45  46
ENDBRANCH  44  45
ENDBRANCH  43  44
ENDBRANCH  42  43
ENDBRANCH  41  42
ENDBRANCH  40  41
ENDBRANCH  38  39
ENDBRANCH  37  38
ENDBRANCH  36  37
ENDBRANCH  35  36
ENDBRANCH  34  35
ENDBRANCH  33  34
ENDBRANCH  32  33
ENDBRANCH  30  32
ENDBRANCH  29  30
ENDBRANCH   1  29
TORSDOF 38
ENDMDL
MODEL 3
REMARK VINA RESULT:      -6.2      1.826      2.927
REMARK WARNING: 32 MAX_TORS EXCEEDED!!!
REMARK  38 active torsions:
REMARK  status: ('A' for Active; 'I' for Inactive)
REMARK    1  A    between atoms: C2H_2  and  C2G_3 
REMARK    2  A    between atoms: C2G_3  and  C2F_4 
REMARK    3  A    between atoms: C2F_4  and  C2E_5 
REMARK    4  A    between atoms: C2E_5  and  C2D_6 
REMARK    5  A    between atoms: C2D_6  and  C2C_7 
REMARK    6  A    between atoms: C2C_7  and  C2B_8 
REMARK    7  A    between atoms: C2B_8  and  C2A_9 
REMARK    8  A    between atoms: C29_10  and  C28_11 
REMARK    9  A    between atoms: C28_11  and  C27_12 
REMARK   10  A    between atoms: C27_12  and  C26_13 
REMARK   11  A    between atoms: C26_13  and  C25_14 
REMARK   12  A    between atoms: C25_14  and  C24_15 
REMARK   13  A    between atoms: C24_15  and  C23_16 
REMARK   14  A    between atoms: C23_16  and  C22_17 
REMARK   15  A    between atoms: C22_17  and  C21_18 
REMARK   16  A    between atoms: C21_18  and  O21_20 
REMARK   17  A    between atoms: O21_20  and  C2_21 
REMARK   18  A    between atoms: C2_21  and  C3_28 
REMARK   19  A    between atoms: C2_21  and  C1_22 
REMARK   20  A    between atoms: C1_22  and  O11_23 
REMARK   21  A    between atoms: O11_23  and  P_24 
REMARK   22  A    between atoms: C3_28  and  O31_29 
REMARK   23  A    between atoms: O31_29  and  C31_30 
REMARK   24  A    between atoms: C31_30  and  C32_32 
REMARK   25  A    between atoms: C32_32  and  C33_33 
REMARK   26  A    between atoms: C33_33  and  C34_34 
REMARK   27  A    between atoms: C34_34  and  C35_35 
REMARK   28  A    between atoms: C35_35  and  C36_36 
REMARK   29  A    between atoms: C36_36  and  C37_37 
REMARK   30  A    between atoms: C37_37  and  C38_38 
REMARK   31  A    between atoms: C38_38  and  C39_39 
REMARK   32  A    between atoms: C3A_40  and  C3B_41 
REMARK   33  A    between atoms: C3B_41  and  C3C_42 
REMARK   34  A    between atoms: C3C_42  and  C3D_43 
REMARK   35  A    between atoms: C3D_43  and  C3E_44 
REMARK   36  A    between atoms: C3E_44  and  C3F_45 
REMARK   37  A    between atoms: C3F_45  and  C3G_46 
REMARK   38  A    between atoms: C3G_46  and  C3H_47 
ROOT
ATOM      1  C2  MX7 A 305     -14.720 -13.814   9.271  1.00 54.48     0.180 C 
ENDROOT
BRANCH   1   2
ATOM      2  C3  MX7 A 305     -16.099 -14.318   9.673  1.00 53.94     0.213 C 
BRANCH   2   3
ATOM      3  O31 MX7 A 305     -16.005 -15.691  10.096  1.00 55.94    -0.319 OA
BRANCH   3   4
ATOM      4  C31 MX7 A 305     -17.190 -16.338   9.861  1.00 55.30     0.258 C 
ATOM      5  O32 MX7 A 305     -17.493 -17.410  10.389  1.00 57.61    -0.265 OA
BRANCH   4   6
ATOM      6  C32 MX7 A 305     -18.158 -15.678   8.862  1.00 51.54     0.111 C 
BRANCH   6   7
ATOM      7  C33 MX7 A 305     -19.467 -16.455   8.680  1.00 49.21     0.010 C 
BRANCH   7   8
ATOM      8  C34 MX7 A 305     -19.427 -17.237   7.351  1.00 47.43     0.000 C 
BRANCH   8   9
ATOM      9  C35 MX7 A 305     -20.807 -17.263   6.661  1.00 45.86     0.000 C 
BRANCH   9  10
ATOM     10  C36 MX7 A 305     -21.543 -15.943   6.932  1.00 44.09     0.000 C 
BRANCH  10  11
ATOM     11  C37 MX7 A 305     -21.230 -14.914   5.824  1.00 44.79     0.004 C 
BRANCH  11  12
ATOM     12  C38 MX7 A 305     -20.979 -13.465   6.334  1.00 45.27     0.027 C 
BRANCH  12  13
ATOM     13  C39 MX7 A 305     -19.628 -13.122   6.166  1.00 44.20    -0.031 C 
ATOM     14  C3A MX7 A 305     -19.173 -11.898   6.702  1.00 43.34    -0.031 C 
BRANCH  14  15
ATOM     15  C3B MX7 A 305     -20.090 -11.109   7.405  1.00 44.12     0.027 C 
BRANCH  15  16
ATOM     16  C3C MX7 A 305     -19.425 -10.533   8.674  1.00 42.90     0.004 C 
BRANCH  16  17
ATOM     17  C3D MX7 A 305     -19.025 -11.693   9.596  1.00 42.71     0.000 C 
BRANCH  17  18
ATOM     18  C3E MX7 A 305     -17.967 -11.271  10.614  1.00 42.50     0.000 C 
BRANCH  18  19
ATOM     19  C3F MX7 A 305     -18.552 -10.228  11.590  1.00 41.47     0.000 C 
BRANCH  19  20
ATOM     20  C3G MX7 A 305     -17.771 -10.272  12.924  1.00 40.90    -0.000 C 
BRANCH  20  21
ATOM     21  C3H MX7 A 305     -18.702 -10.131  14.144  1.00 40.73    -0.005 C 
ATOM     22  C3I MX7 A 305     -19.557  -8.854  14.044  1.00 38.16     0.005 C 
ENDBRANCH  20  21
ENDBRANCH  19  20
ENDBRANCH  18  19
ENDBRANCH  17  18
ENDBRANCH  16  17
ENDBRANCH  15  16
ENDBRANCH  14  15
ENDBRANCH  12  13
ENDBRANCH  11  12
ENDBRANCH  10  11
ENDBRANCH   9  10
ENDBRANCH   8   9
ENDBRANCH   7   8
ENDBRANCH   6   7
ENDBRANCH   4   6
ENDBRANCH   3   4
ENDBRANCH   2   3
ENDBRANCH   1   2
BRANCH   1  23
ATOM     23  C1  MX7 A 305     -13.644 -14.758   9.843  1.00 57.68     0.217 C 
BRANCH  23  24
ATOM     24  O11 MX7 A 305     -12.396 -14.485   9.194  1.00 59.71    -0.280 OA
BRANCH  24  25
ATOM     25  P   MX7 A 305     -12.025 -15.011   7.714  1.00 63.58     0.422 P 
ATOM     26  O13 MX7 A 305     -12.924 -16.387   7.652  1.00 61.39    -0.617 OA
ATOM     27  O12 MX7 A 305     -10.567 -15.275   7.662  1.00 62.00    -0.617 OA
ATOM     28  O14 MX7 A 305     -12.605 -14.044   6.758  1.00 63.78    -0.617 OA
ENDBRANCH  24  25
ENDBRANCH  23  24
ENDBRANCH   1  23
BRANCH   1  29
ATOM     29  O21 MX7 A 305     -14.553 -12.473   9.764  1.00 51.80    -0.312 OA
BRANCH  29  30
ATOM     30  C21 MX7 A 305     -14.088 -11.614   8.809  1.00 50.47     0.259 C 
ATOM     31  O22 MX7 A 305     -13.092 -10.910   8.940  1.00 51.01    -0.265 OA
BRANCH  30  32
ATOM     32  C22 MX7 A 305     -14.887 -11.560   7.506  1.00 48.47     0.111 C 
BRANCH  32  33
ATOM     33  C23 MX7 A 305     -16.013 -10.531   7.642  1.00 47.13     0.010 C 
BRANCH  33  34
ATOM     34  C24 MX7 A 305     -15.915  -9.417   6.590  1.00 45.79     0.000 C 
BRANCH  34  35
ATOM     35  C25 MX7 A 305     -14.434  -9.047   6.325  1.00 44.53     0.000 C 
BRANCH  35  36
ATOM     36  C26 MX7 A 305     -14.270  -7.711   5.542  1.00 43.27     0.000 C 
BRANCH  36  37
ATOM     37  C27 MX7 A 305     -15.635  -7.029   5.364  1.00 43.49     0.004 C 
BRANCH  37  38
ATOM     38  C28 MX7 A 305     -15.544  -5.790   4.468  1.00 41.75     0.027 C 
BRANCH  38  39
ATOM     39  C29 MX7 A 305     -14.204  -5.567   4.147  1.00 41.31    -0.031 C 
ATOM     40  C2A MX7 A 305     -13.652  -4.366   4.627  1.00 41.39    -0.031 C 
BRANCH  40  41
ATOM     41  C2B MX7 A 305     -14.524  -3.557   5.355  1.00 41.30     0.027 C 
BRANCH  41  42
ATOM     42  C2C MX7 A 305     -14.343  -2.063   4.963  1.00 41.60     0.004 C 
BRANCH  42  43
ATOM     43  C2D MX7 A 305     -13.784  -1.268   6.163  1.00 41.45     0.000 C 
BRANCH  43  44
ATOM     44  C2E MX7 A 305     -13.264  -2.189   7.282  1.00 41.44     0.000 C 
BRANCH  44  45
ATOM     45  C2F MX7 A 305     -11.730  -2.332   7.137  1.00 41.85     0.000 C 
BRANCH  45  46
ATOM     46  C2G MX7 A 305     -11.052  -2.851   8.424  1.00 42.39    -0.000 C 
BRANCH  46  47
ATOM     47  C2H MX7 A 305     -10.431  -4.248   8.202  1.00 42.18    -0.005 C 
ATOM     48  C2I MX7 A 305     -10.742  -4.782   6.804  1.00 44.20     0.005 C 
ENDBRANCH  46  47
ENDBRANCH  45  46
ENDBRANCH  44  45
ENDBRANCH  43  44
ENDBRANCH  42  43
ENDBRANCH  41  42
ENDBRANCH  40  41
ENDBRANCH  38  39
ENDBRANCH  37  38
ENDBRANCH  36  37
ENDBRANCH  35  36
ENDBRANCH  34  35
ENDBRANCH  33  34
ENDBRANCH  32  33
ENDBRANCH  30  32
ENDBRANCH  29  30
ENDBRANCH   1  29
TORSDOF 38
ENDMDL
MODEL 4
REMARK VINA RESULT:      -6.1      2.598      9.121
REMARK WARNING: 32 MAX_TORS EXCEEDED!!!
REMARK  38 active torsions:
REMARK  status: ('A' for Active; 'I' for Inactive)
REMARK    1  A    between atoms: C2H_2  and  C2G_3 
REMARK    2  A    between atoms: C2G_3  and  C2F_4 
REMARK    3  A    between atoms: C2F_4  and  C2E_5 
REMARK    4  A    between atoms: C2E_5  and  C2D_6 
REMARK    5  A    between atoms: C2D_6  and  C2C_7 
REMARK    6  A    between atoms: C2C_7  and  C2B_8 
REMARK    7  A    between atoms: C2B_8  and  C2A_9 
REMARK    8  A    between atoms: C29_10  and  C28_11 
REMARK    9  A    between atoms: C28_11  and  C27_12 
REMARK   10  A    between atoms: C27_12  and  C26_13 
REMARK   11  A    between atoms: C26_13  and  C25_14 
REMARK   12  A    between atoms: C25_14  and  C24_15 
REMARK   13  A    between atoms: C24_15  and  C23_16 
REMARK   14  A    between atoms: C23_16  and  C22_17 
REMARK   15  A    between atoms: C22_17  and  C21_18 
REMARK   16  A    between atoms: C21_18  and  O21_20 
REMARK   17  A    between atoms: O21_20  and  C2_21 
REMARK   18  A    between atoms: C2_21  and  C3_28 
REMARK   19  A    between atoms: C2_21  and  C1_22 
REMARK   20  A    between atoms: C1_22  and  O11_23 
REMARK   21  A    between atoms: O11_23  and  P_24 
REMARK   22  A    between atoms: C3_28  and  O31_29 
REMARK   23  A    between atoms: O31_29  and  C31_30 
REMARK   24  A    between atoms: C31_30  and  C32_32 
REMARK   25  A    between atoms: C32_32  and  C33_33 
REMARK   26  A    between atoms: C33_33  and  C34_34 
REMARK   27  A    between atoms: C34_34  and  C35_35 
REMARK   28  A    between atoms: C35_35  and  C36_36 
REMARK   29  A    between atoms: C36_36  and  C37_37 
REMARK   30  A    between atoms: C37_37  and  C38_38 
REMARK   31  A    between atoms: C38_38  and  C39_39 
REMARK   32  A    between atoms: C3A_40  and  C3B_41 
REMARK   33  A    between atoms: C3B_41  and  C3C_42 
REMARK   34  A    between atoms: C3C_42  and  C3D_43 
REMARK   35  A    between atoms: C3D_43  and  C3E_44 
REMARK   36  A    between atoms: C3E_44  and  C3F_45 
REMARK   37  A    between atoms: C3F_45  and  C3G_46 
REMARK   38  A    between atoms: C3G_46  and  C3H_47 
ROOT
ATOM      1  C2  MX7 A 305     -13.974 -16.626   9.682  1.00 54.48     0.180 C 
ENDROOT
BRANCH   1   2
ATOM      2  C3  MX7 A 305     -12.998 -16.178   8.603  1.00 53.94     0.213 C 
BRANCH   2   3
ATOM      3  O31 MX7 A 305     -12.568 -14.831   8.873  1.00 55.94    -0.319 OA
BRANCH   3   4
ATOM      4  C31 MX7 A 305     -12.174 -14.220   7.711  1.00 55.30     0.258 C 
ATOM      5  O32 MX7 A 305     -11.780 -14.839   6.721  1.00 57.61    -0.265 OA
BRANCH   4   6
ATOM      6  C32 MX7 A 305     -12.215 -12.681   7.685  1.00 51.54     0.111 C 
BRANCH   6   7
ATOM      7  C33 MX7 A 305     -13.344 -12.089   8.536  1.00 49.21     0.010 C 
BRANCH   7   8
ATOM      8  C34 MX7 A 305     -13.863 -10.792   7.882  1.00 47.43     0.000 C 
BRANCH   8   9
ATOM      9  C35 MX7 A 305     -15.217 -11.009   7.176  1.00 45.86     0.000 C 
BRANCH   9  10
ATOM     10  C36 MX7 A 305     -15.803  -9.651   6.761  1.00 44.09     0.000 C 
BRANCH  10  11
ATOM     11  C37 MX7 A 305     -14.677  -8.688   6.324  1.00 44.79     0.004 C 
BRANCH  11  12
ATOM     12  C38 MX7 A 305     -15.136  -7.534   5.387  1.00 45.27     0.027 C 
BRANCH  12  13
ATOM     13  C39 MX7 A 305     -14.023  -6.947   4.764  1.00 44.20    -0.031 C 
ATOM     14  C3A MX7 A 305     -13.996  -5.543   4.618  1.00 43.34    -0.031 C 
BRANCH  14  15
ATOM     15  C3B MX7 A 305     -15.068  -4.809   5.138  1.00 44.12     0.027 C 
BRANCH  15  16
ATOM     16  C3C MX7 A 305     -14.800  -3.298   4.972  1.00 42.90     0.004 C 
BRANCH  16  17
ATOM     17  C3D MX7 A 305     -13.311  -3.025   5.225  1.00 42.71     0.000 C 
BRANCH  17  18
ATOM     18  C3E MX7 A 305     -13.100  -2.048   6.379  1.00 42.50     0.000 C 
BRANCH  18  19
ATOM     19  C3F MX7 A 305     -12.035  -2.595   7.353  1.00 41.47     0.000 C 
BRANCH  19  20
ATOM     20  C3G MX7 A 305     -11.345  -3.829   6.728  1.00 40.90    -0.000 C 
BRANCH  20  21
ATOM     21  C3H MX7 A 305     -10.265  -4.419   7.656  1.00 40.73    -0.005 C 
ATOM     22  C3I MX7 A 305      -9.084  -4.983   6.844  1.00 38.16     0.005 C 
ENDBRANCH  20  21
ENDBRANCH  19  20
ENDBRANCH  18  19
ENDBRANCH  17  18
ENDBRANCH  16  17
ENDBRANCH  15  16
ENDBRANCH  14  15
ENDBRANCH  12  13
ENDBRANCH  11  12
ENDBRANCH  10  11
ENDBRANCH   9  10
ENDBRANCH   8   9
ENDBRANCH   7   8
ENDBRANCH   6   7
ENDBRANCH   4   6
ENDBRANCH   3   4
ENDBRANCH   2   3
ENDBRANCH   1   2
BRANCH   1  23
ATOM     23  C1  MX7 A 305     -13.981 -18.166   9.758  1.00 57.68     0.217 C 
BRANCH  23  24
ATOM     24  O11 MX7 A 305     -12.800 -18.602  10.443  1.00 59.71    -0.280 OA
BRANCH  24  25
ATOM     25  P   MX7 A 305     -12.322 -20.141  10.507  1.00 63.58     0.422 P 
ATOM     26  O13 MX7 A 305     -10.750 -19.985  10.046  1.00 61.39    -0.617 OA
ATOM     27  O12 MX7 A 305     -13.129 -20.924   9.541  1.00 62.00    -0.617 OA
ATOM     28  O14 MX7 A 305     -12.341 -20.537  11.932  1.00 63.78    -0.617 OA
ENDBRANCH  24  25
ENDBRANCH  23  24
ENDBRANCH   1  23
BRANCH   1  29
ATOM     29  O21 MX7 A 305     -15.280 -16.113   9.369  1.00 51.80    -0.312 OA
BRANCH  29  30
ATOM     30  C21 MX7 A 305     -15.748 -15.246  10.316  1.00 50.47     0.259 C 
ATOM     31  O22 MX7 A 305     -15.893 -15.529  11.500  1.00 51.01    -0.265 OA
BRANCH  30  32
ATOM     32  C22 MX7 A 305     -16.096 -13.839   9.826  1.00 48.47     0.111 C 
BRANCH  32  33
ATOM     33  C23 MX7 A 305     -16.009 -12.857  10.997  1.00 47.13     0.010 C 
BRANCH  33  34
ATOM     34  C24 MX7 A 305     -17.211 -11.903  11.048  1.00 45.79     0.000 C 
BRANCH  34  35
ATOM     35  C25 MX7 A 305     -18.494 -12.617  10.553  1.00 44.53     0.000 C 
BRANCH  35  36
ATOM     36  C26 MX7 A 305     -19.435 -11.682   9.737  1.00 43.27     0.000 C 
BRANCH  36  37
ATOM     37  C27 MX7 A 305     -18.807 -11.353   8.375  1.00 43.49     0.004 C 
BRANCH  37  38
ATOM     38  C28 MX7 A 305     -18.453 -12.617   7.586  1.00 41.75     0.027 C 
BRANCH  38  39
ATOM     39  C29 MX7 A 305     -18.623 -12.358   6.225  1.00 41.31    -0.031 C 
ATOM     40  C2A MX7 A 305     -19.549 -13.178   5.558  1.00 41.39    -0.031 C 
BRANCH  40  41
ATOM     41  C2B MX7 A 305     -20.168 -14.146   6.348  1.00 41.30     0.027 C 
BRANCH  41  42
ATOM     42  C2C MX7 A 305     -21.619 -14.412   5.853  1.00 41.60     0.004 C 
BRANCH  42  43
ATOM     43  C2D MX7 A 305     -22.622 -13.610   6.710  1.00 41.45     0.000 C 
BRANCH  43  44
ATOM     44  C2E MX7 A 305     -22.604 -12.106   6.375  1.00 41.44     0.000 C 
BRANCH  44  45
ATOM     45  C2F MX7 A 305     -24.053 -11.642   6.090  1.00 41.85     0.000 C 
BRANCH  45  46
ATOM     46  C2G MX7 A 305     -24.188 -10.887   4.751  1.00 42.39    -0.000 C 
BRANCH  46  47
ATOM     47  C2H MX7 A 305     -24.737 -11.814   3.642  1.00 42.18    -0.005 C 
ATOM     48  C2I MX7 A 305     -23.651 -12.742   3.102  1.00 44.20     0.005 C 
ENDBRANCH  46  47
ENDBRANCH  45  46
ENDBRANCH  44  45
ENDBRANCH  43  44
ENDBRANCH  42  43
ENDBRANCH  41  42
ENDBRANCH  40  41
ENDBRANCH  38  39
ENDBRANCH  37  38
ENDBRANCH  36  37
ENDBRANCH  35  36
ENDBRANCH  34  35
ENDBRANCH  33  34
ENDBRANCH  32  33
ENDBRANCH  30  32
ENDBRANCH  29  30
ENDBRANCH   1  29
TORSDOF 38
ENDMDL
MODEL 5
REMARK VINA RESULT:      -6.1      1.528      3.211
REMARK WARNING: 32 MAX_TORS EXCEEDED!!!
REMARK  38 active torsions:
REMARK  status: ('A' for Active; 'I' for Inactive)
REMARK    1  A    between atoms: C2H_2  and  C2G_3 
REMARK    2  A    between atoms: C2G_3  and  C2F_4 
REMARK    3  A    between atoms: C2F_4  and  C2E_5 
REMARK    4  A    between atoms: C2E_5  and  C2D_6 
REMARK    5  A    between atoms: C2D_6  and  C2C_7 
REMARK    6  A    between atoms: C2C_7  and  C2B_8 
REMARK    7  A    between atoms: C2B_8  and  C2A_9 
REMARK    8  A    between atoms: C29_10  and  C28_11 
REMARK    9  A    between atoms: C28_11  and  C27_12 
REMARK   10  A    between atoms: C27_12  and  C26_13 
REMARK   11  A    between atoms: C26_13  and  C25_14 
REMARK   12  A    between atoms: C25_14  and  C24_15 
REMARK   13  A    between atoms: C24_15  and  C23_16 
REMARK   14  A    between atoms: C23_16  and  C22_17 
REMARK   15  A    between atoms: C22_17  and  C21_18 
REMARK   16  A    between atoms: C21_18  and  O21_20 
REMARK   17  A    between atoms: O21_20  and  C2_21 
REMARK   18  A    between atoms: C2_21  and  C3_28 
REMARK   19  A    between atoms: C2_21  and  C1_22 
REMARK   20  A    between atoms: C1_22  and  O11_23 
REMARK   21  A    between atoms: O11_23  and  P_24 
REMARK   22  A    between atoms: C3_28  and  O31_29 
REMARK   23  A    between atoms: O31_29  and  C31_30 
REMARK   24  A    between atoms: C31_30  and  C32_32 
REMARK   25  A    between atoms: C32_32  and  C33_33 
REMARK   26  A    between atoms: C33_33  and  C34_34 
REMARK   27  A    between atoms: C34_34  and  C35_35 
REMARK   28  A    between atoms: C35_35  and  C36_36 
REMARK   29  A    between atoms: C36_36  and  C37_37 
REMARK   30  A    between atoms: C37_37  and  C38_38 
REMARK   31  A    between atoms: C38_38  and  C39_39 
REMARK   32  A    between atoms: C3A_40  and  C3B_41 
REMARK   33  A    between atoms: C3B_41  and  C3C_42 
REMARK   34  A    between atoms: C3C_42  and  C3D_43 
REMARK   35  A    between atoms: C3D_43  and  C3E_44 
REMARK   36  A    between atoms: C3E_44  and  C3F_45 
REMARK   37  A    between atoms: C3F_45  and  C3G_46 
REMARK   38  A    between atoms: C3G_46  and  C3H_47 
ROOT
ATOM      1  C2  MX7 A 305     -12.873 -13.977   8.253  1.00 54.48     0.180 C 
ENDROOT
BRANCH   1   2
ATOM      2  C3  MX7 A 305     -12.559 -14.876   9.440  1.00 53.94     0.213 C 
BRANCH   2   3
ATOM      3  O31 MX7 A 305     -13.745 -15.596   9.826  1.00 55.94    -0.319 OA
BRANCH   3   4
ATOM      4  C31 MX7 A 305     -13.662 -16.899   9.410  1.00 55.30     0.258 C 
ATOM      5  O32 MX7 A 305     -12.666 -17.371   8.858  1.00 57.61    -0.265 OA
BRANCH   4   6
ATOM      6  C32 MX7 A 305     -14.903 -17.782   9.635  1.00 51.54     0.111 C 
BRANCH   6   7
ATOM      7  C33 MX7 A 305     -14.794 -19.162   8.976  1.00 49.21     0.010 C 
BRANCH   7   8
ATOM      8  C34 MX7 A 305     -16.178 -19.842   8.963  1.00 47.43     0.000 C 
BRANCH   8   9
ATOM      9  C35 MX7 A 305     -17.294 -18.879   9.419  1.00 45.86     0.000 C 
BRANCH   9  10
ATOM     10  C36 MX7 A 305     -18.591 -19.201   8.661  1.00 44.09     0.000 C 
BRANCH  10  11
ATOM     11  C37 MX7 A 305     -19.146 -17.930   7.980  1.00 44.79     0.004 C 
BRANCH  11  12
ATOM     12  C38 MX7 A 305     -20.310 -17.237   8.747  1.00 45.27     0.027 C 
BRANCH  12  13
ATOM     13  C39 MX7 A 305     -21.546 -17.668   8.240  1.00 44.20    -0.031 C 
ATOM     14  C3A MX7 A 305     -22.338 -16.744   7.522  1.00 43.34    -0.031 C 
BRANCH  14  15
ATOM     15  C3B MX7 A 305     -21.827 -15.456   7.327  1.00 44.12     0.027 C 
BRANCH  15  16
ATOM     16  C3C MX7 A 305     -21.483 -15.248   5.837  1.00 42.90     0.004 C 
BRANCH  16  17
ATOM     17  C3D MX7 A 305     -21.290 -13.748   5.574  1.00 42.71     0.000 C 
BRANCH  17  18
ATOM     18  C3E MX7 A 305     -20.587 -13.053   6.738  1.00 42.50     0.000 C 
BRANCH  18  19
ATOM     19  C3F MX7 A 305     -19.267 -12.413   6.258  1.00 41.47     0.000 C 
BRANCH  19  20
ATOM     20  C3G MX7 A 305     -18.896 -11.232   7.184  1.00 40.90    -0.000 C 
BRANCH  20  21
ATOM     21  C3H MX7 A 305     -18.934 -11.631   8.673  1.00 40.73    -0.005 C 
ATOM     22  C3I MX7 A 305     -18.588 -10.433   9.577  1.00 38.16     0.005 C 
ENDBRANCH  20  21
ENDBRANCH  19  20
ENDBRANCH  18  19
ENDBRANCH  17  18
ENDBRANCH  16  17
ENDBRANCH  15  16
ENDBRANCH  14  15
ENDBRANCH  12  13
ENDBRANCH  11  12
ENDBRANCH  10  11
ENDBRANCH   9  10
ENDBRANCH   8   9
ENDBRANCH   7   8
ENDBRANCH   6   7
ENDBRANCH   4   6
ENDBRANCH   3   4
ENDBRANCH   2   3
ENDBRANCH   1   2
BRANCH   1  23
ATOM     23  C1  MX7 A 305     -12.032 -14.418   7.039  1.00 57.68     0.217 C 
BRANCH  23  24
ATOM     24  O11 MX7 A 305     -12.461 -13.682   5.886  1.00 59.71    -0.280 OA
BRANCH  24  25
ATOM     25  P   MX7 A 305     -12.028 -14.053   4.377  1.00 63.58     0.422 P 
ATOM     26  O13 MX7 A 305     -13.495 -14.407   3.723  1.00 61.39    -0.617 OA
ATOM     27  O12 MX7 A 305     -11.122 -15.226   4.425  1.00 62.00    -0.617 OA
ATOM     28  O14 MX7 A 305     -11.540 -12.805   3.752  1.00 63.78    -0.617 OA
ENDBRANCH  24  25
ENDBRANCH  23  24
ENDBRANCH   1  23
BRANCH   1  29
ATOM     29  O21 MX7 A 305     -12.592 -12.613   8.616  1.00 51.80    -0.312 OA
BRANCH  29  30
ATOM     30  C21 MX7 A 305     -13.718 -11.846   8.704  1.00 50.47     0.259 C 
ATOM     31  O22 MX7 A 305     -14.491 -11.863   9.656  1.00 51.01    -0.265 OA
BRANCH  30  32
ATOM     32  C22 MX7 A 305     -13.994 -10.916   7.521  1.00 48.47     0.111 C 
BRANCH  32  33
ATOM     33  C23 MX7 A 305     -15.453 -10.455   7.566  1.00 47.13     0.010 C 
BRANCH  33  34
ATOM     34  C24 MX7 A 305     -15.766  -9.405   6.492  1.00 45.79     0.000 C 
BRANCH  34  35
ATOM     35  C25 MX7 A 305     -14.497  -8.586   6.145  1.00 44.53     0.000 C 
BRANCH  35  36
ATOM     36  C26 MX7 A 305     -14.818  -7.218   5.473  1.00 43.27     0.000 C 
BRANCH  36  37
ATOM     37  C27 MX7 A 305     -13.529  -6.566   4.953  1.00 43.49     0.004 C 
BRANCH  37  38
ATOM     38  C28 MX7 A 305     -13.765  -5.129   4.478  1.00 41.75     0.027 C 
BRANCH  38  39
ATOM     39  C29 MX7 A 305     -15.035  -4.724   4.890  1.00 41.31    -0.031 C 
ATOM     40  C2A MX7 A 305     -15.208  -3.340   5.067  1.00 41.39    -0.031 C 
BRANCH  40  41
ATOM     41  C2B MX7 A 305     -14.081  -2.559   4.811  1.00 41.30     0.027 C 
BRANCH  41  42
ATOM     42  C2C MX7 A 305     -13.721  -1.692   6.050  1.00 41.60     0.004 C 
BRANCH  42  43
ATOM     43  C2D MX7 A 305     -13.424  -2.603   7.261  1.00 41.45     0.000 C 
BRANCH  43  44
ATOM     44  C2E MX7 A 305     -12.303  -2.040   8.155  1.00 41.44     0.000 C 
BRANCH  44  45
ATOM     45  C2F MX7 A 305     -10.978  -2.760   7.805  1.00 41.85     0.000 C 
BRANCH  45  46
ATOM     46  C2G MX7 A 305     -11.139  -3.792   6.669  1.00 42.39    -0.000 C 
BRANCH  46  47
ATOM     47  C2H MX7 A 305     -10.376  -5.097   6.989  1.00 42.18    -0.005 C 
ATOM     48  C2I MX7 A 305      -8.864  -4.896   6.900  1.00 44.20     0.005 C 
ENDBRANCH  46  47
ENDBRANCH  45  46
ENDBRANCH  44  45
ENDBRANCH  43  44
ENDBRANCH  42  43
ENDBRANCH  41  42
ENDBRANCH  40  41
ENDBRANCH  38  39
ENDBRANCH  37  38
ENDBRANCH  36  37
ENDBRANCH  35  36
ENDBRANCH  34  35
ENDBRANCH  33  34
ENDBRANCH  32  33
ENDBRANCH  30  32
ENDBRANCH  29  30
ENDBRANCH   1  29
TORSDOF 38
ENDMDL
MODEL 6
REMARK VINA RESULT:      -6.0      1.808      3.383
REMARK WARNING: 32 MAX_TORS EXCEEDED!!!
REMARK  38 active torsions:
REMARK  status: ('A' for Active; 'I' for Inactive)
REMARK    1  A    between atoms: C2H_2  and  C2G_3 
REMARK    2  A    between atoms: C2G_3  and  C2F_4 
REMARK    3  A    between atoms: C2F_4  and  C2E_5 
REMARK    4  A    between atoms: C2E_5  and  C2D_6 
REMARK    5  A    between atoms: C2D_6  and  C2C_7 
REMARK    6  A    between atoms: C2C_7  and  C2B_8 
REMARK    7  A    between atoms: C2B_8  and  C2A_9 
REMARK    8  A    between atoms: C29_10  and  C28_11 
REMARK    9  A    between atoms: C28_11  and  C27_12 
REMARK   10  A    between atoms: C27_12  and  C26_13 
REMARK   11  A    between atoms: C26_13  and  C25_14 
REMARK   12  A    between atoms: C25_14  and  C24_15 
REMARK   13  A    between atoms: C24_15  and  C23_16 
REMARK   14  A    between atoms: C23_16  and  C22_17 
REMARK   15  A    between atoms: C22_17  and  C21_18 
REMARK   16  A    between atoms: C21_18  and  O21_20 
REMARK   17  A    between atoms: O21_20  and  C2_21 
REMARK   18  A    between atoms: C2_21  and  C3_28 
REMARK   19  A    between atoms: C2_21  and  C1_22 
REMARK   20  A    between atoms: C1_22  and  O11_23 
REMARK   21  A    between atoms: O11_23  and  P_24 
REMARK   22  A    between atoms: C3_28  and  O31_29 
REMARK   23  A    between atoms: O31_29  and  C31_30 
REMARK   24  A    between atoms: C31_30  and  C32_32 
REMARK   25  A    between atoms: C32_32  and  C33_33 
REMARK   26  A    between atoms: C33_33  and  C34_34 
REMARK   27  A    between atoms: C34_34  and  C35_35 
REMARK   28  A    between atoms: C35_35  and  C36_36 
REMARK   29  A    between atoms: C36_36  and  C37_37 
REMARK   30  A    between atoms: C37_37  and  C38_38 
REMARK   31  A    between atoms: C38_38  and  C39_39 
REMARK   32  A    between atoms: C3A_40  and  C3B_41 
REMARK   33  A    between atoms: C3B_41  and  C3C_42 
REMARK   34  A    between atoms: C3C_42  and  C3D_43 
REMARK   35  A    between atoms: C3D_43  and  C3E_44 
REMARK   36  A    between atoms: C3E_44  and  C3F_45 
REMARK   37  A    between atoms: C3F_45  and  C3G_46 
REMARK   38  A    between atoms: C3G_46  and  C3H_47 
ROOT
ATOM      1  C2  MX7 A 305     -12.866 -15.255   8.410  1.00 54.48     0.180 C 
ENDROOT
BRANCH   1   2
ATOM      2  C3  MX7 A 305     -13.435 -16.212   9.448  1.00 53.94     0.213 C 
BRANCH   2   3
ATOM      3  O31 MX7 A 305     -14.157 -15.466  10.446  1.00 55.94    -0.319 OA
BRANCH   3   4
ATOM      4  C31 MX7 A 305     -15.473 -15.346  10.085  1.00 55.30     0.258 C 
ATOM      5  O32 MX7 A 305     -16.115 -16.255   9.556  1.00 57.61    -0.265 OA
BRANCH   4   6
ATOM      6  C32 MX7 A 305     -16.144 -13.985  10.343  1.00 51.54     0.111 C 
BRANCH   6   7
ATOM      7  C33 MX7 A 305     -17.046 -13.978  11.583  1.00 49.21     0.010 C 
BRANCH   7   8
ATOM      8  C34 MX7 A 305     -18.472 -13.543  11.188  1.00 47.43     0.000 C 
BRANCH   8   9
ATOM      9  C35 MX7 A 305     -18.496 -12.109  10.619  1.00 45.86     0.000 C 
BRANCH   9  10
ATOM     10  C36 MX7 A 305     -19.667 -11.967   9.635  1.00 44.09     0.000 C 
BRANCH  10  11
ATOM     11  C37 MX7 A 305     -19.477 -10.715   8.749  1.00 44.79     0.004 C 
BRANCH  11  12
ATOM     12  C38 MX7 A 305     -18.861 -10.997   7.348  1.00 45.27     0.027 C 
BRANCH  12  13
ATOM     13  C39 MX7 A 305     -18.161 -12.214   7.365  1.00 44.20    -0.031 C 
ATOM     14  C3A MX7 A 305     -18.632 -13.273   6.560  1.00 43.34    -0.031 C 
BRANCH  14  15
ATOM     15  C3B MX7 A 305     -19.756 -13.038   5.760  1.00 44.12     0.027 C 
BRANCH  15  16
ATOM     16  C3C MX7 A 305     -20.858 -14.069   6.087  1.00 42.90     0.004 C 
BRANCH  16  17
ATOM     17  C3D MX7 A 305     -22.026 -13.878   5.109  1.00 42.71     0.000 C 
BRANCH  17  18
ATOM     18  C3E MX7 A 305     -22.798 -12.591   5.390  1.00 42.50     0.000 C 
BRANCH  18  19
ATOM     19  C3F MX7 A 305     -23.442 -12.650   6.792  1.00 41.47     0.000 C 
BRANCH  19  20
ATOM     20  C3G MX7 A 305     -24.436 -11.478   6.956  1.00 40.90    -0.000 C 
BRANCH  20  21
ATOM     21  C3H MX7 A 305     -24.202 -10.701   8.267  1.00 40.73    -0.005 C 
ATOM     22  C3I MX7 A 305     -23.243 -11.463   9.199  1.00 38.16     0.005 C 
ENDBRANCH  20  21
ENDBRANCH  19  20
ENDBRANCH  18  19
ENDBRANCH  17  18
ENDBRANCH  16  17
ENDBRANCH  15  16
ENDBRANCH  14  15
ENDBRANCH  12  13
ENDBRANCH  11  12
ENDBRANCH  10  11
ENDBRANCH   9  10
ENDBRANCH   8   9
ENDBRANCH   7   8
ENDBRANCH   6   7
ENDBRANCH   4   6
ENDBRANCH   3   4
ENDBRANCH   2   3
ENDBRANCH   1   2
BRANCH   1  23
ATOM     23  C1  MX7 A 305     -12.474 -16.044   7.146  1.00 57.68     0.217 C 
BRANCH  23  24
ATOM     24  O11 MX7 A 305     -11.911 -15.137   6.189  1.00 59.71    -0.280 OA
BRANCH  24  25
ATOM     25  P   MX7 A 305     -12.219 -15.203   4.607  1.00 63.58     0.422 P 
ATOM     26  O13 MX7 A 305     -13.298 -13.969   4.462  1.00 61.39    -0.617 OA
ATOM     27  O12 MX7 A 305     -12.815 -16.525   4.300  1.00 62.00    -0.617 OA
ATOM     28  O14 MX7 A 305     -10.977 -14.805   3.912  1.00 63.78    -0.617 OA
ENDBRANCH  24  25
ENDBRANCH  23  24
ENDBRANCH   1  23
BRANCH   1  29
ATOM     29  O21 MX7 A 305     -11.730 -14.578   8.977  1.00 51.80    -0.312 OA
BRANCH  29  30
ATOM     30  C21 MX7 A 305     -11.997 -13.279   9.304  1.00 50.47     0.259 C 
ATOM     31  O22 MX7 A 305     -11.296 -12.595  10.042  1.00 51.01    -0.265 OA
BRANCH  30  32
ATOM     32  C22 MX7 A 305     -13.260 -12.676   8.687  1.00 48.47     0.111 C 
BRANCH  32  33
ATOM     33  C23 MX7 A 305     -12.883 -11.878   7.435  1.00 47.13     0.010 C 
BRANCH  33  34
ATOM     34  C24 MX7 A 305     -14.116 -11.378   6.670  1.00 45.79     0.000 C 
BRANCH  34  35
ATOM     35  C25 MX7 A 305     -14.721 -10.133   7.366  1.00 44.53     0.000 C 
BRANCH  35  36
ATOM     36  C26 MX7 A 305     -15.457  -9.179   6.379  1.00 43.27     0.000 C 
BRANCH  36  37
ATOM     37  C27 MX7 A 305     -14.476  -8.142   5.813  1.00 43.49     0.004 C 
BRANCH  37  38
ATOM     38  C28 MX7 A 305     -15.202  -6.926   5.229  1.00 41.75     0.027 C 
BRANCH  38  39
ATOM     39  C29 MX7 A 305     -14.537  -6.523   4.069  1.00 41.31    -0.031 C 
ATOM     40  C2A MX7 A 305     -13.903  -5.270   4.132  1.00 41.39    -0.031 C 
BRANCH  40  41
ATOM     41  C2B MX7 A 305     -14.030  -4.596   5.347  1.00 41.30     0.027 C 
BRANCH  41  42
ATOM     42  C2C MX7 A 305     -14.635  -3.180   5.128  1.00 41.60     0.004 C 
BRANCH  42  43
ATOM     43  C2D MX7 A 305     -13.879  -2.146   5.990  1.00 41.45     0.000 C 
BRANCH  43  44
ATOM     44  C2E MX7 A 305     -12.413  -2.551   6.237  1.00 41.44     0.000 C 
BRANCH  44  45
ATOM     45  C2F MX7 A 305     -12.125  -2.481   7.756  1.00 41.85     0.000 C 
BRANCH  45  46
ATOM     46  C2G MX7 A 305     -10.740  -3.049   8.130  1.00 42.39    -0.000 C 
BRANCH  46  47
ATOM     47  C2H MX7 A 305     -10.564  -4.487   7.594  1.00 42.18    -0.005 C 
ATOM     48  C2I MX7 A 305      -9.123  -4.748   7.157  1.00 44.20     0.005 C 
ENDBRANCH  46  47
ENDBRANCH  45  46
ENDBRANCH  44  45
ENDBRANCH  43  44
ENDBRANCH  42  43
ENDBRANCH  41  42
ENDBRANCH  40  41
ENDBRANCH  38  39
ENDBRANCH  37  38
ENDBRANCH  36  37
ENDBRANCH  35  36
ENDBRANCH  34  35
ENDBRANCH  33  34
ENDBRANCH  32  33
ENDBRANCH  30  32
ENDBRANCH  29  30
ENDBRANCH   1  29
TORSDOF 38
ENDMDL
MODEL 7
REMARK VINA RESULT:      -6.0      2.145      4.564
REMARK WARNING: 32 MAX_TORS EXCEEDED!!!
REMARK  38 active torsions:
REMARK  status: ('A' for Active; 'I' for Inactive)
REMARK    1  A    between atoms: C2H_2  and  C2G_3 
REMARK    2  A    between atoms: C2G_3  and  C2F_4 
REMARK    3  A    between atoms: C2F_4  and  C2E_5 
REMARK    4  A    between atoms: C2E_5  and  C2D_6 
REMARK    5  A    between atoms: C2D_6  and  C2C_7 
REMARK    6  A    between atoms: C2C_7  and  C2B_8 
REMARK    7  A    between atoms: C2B_8  and  C2A_9 
REMARK    8  A    between atoms: C29_10  and  C28_11 
REMARK    9  A    between atoms: C28_11  and  C27_12 
REMARK   10  A    between atoms: C27_12  and  C26_13 
REMARK   11  A    between atoms: C26_13  and  C25_14 
REMARK   12  A    between atoms: C25_14  and  C24_15 
REMARK   13  A    between atoms: C24_15  and  C23_16 
REMARK   14  A    between atoms: C23_16  and  C22_17 
REMARK   15  A    between atoms: C22_17  and  C21_18 
REMARK   16  A    between atoms: C21_18  and  O21_20 
REMARK   17  A    between atoms: O21_20  and  C2_21 
REMARK   18  A    between atoms: C2_21  and  C3_28 
REMARK   19  A    between atoms: C2_21  and  C1_22 
REMARK   20  A    between atoms: C1_22  and  O11_23 
REMARK   21  A    between atoms: O11_23  and  P_24 
REMARK   22  A    between atoms: C3_28  and  O31_29 
REMARK   23  A    between atoms: O31_29  and  C31_30 
REMARK   24  A    between atoms: C31_30  and  C32_32 
REMARK   25  A    between atoms: C32_32  and  C33_33 
REMARK   26  A    between atoms: C33_33  and  C34_34 
REMARK   27  A    between atoms: C34_34  and  C35_35 
REMARK   28  A    between atoms: C35_35  and  C36_36 
REMARK   29  A    between atoms: C36_36  and  C37_37 
REMARK   30  A    between atoms: C37_37  and  C38_38 
REMARK   31  A    between atoms: C38_38  and  C39_39 
REMARK   32  A    between atoms: C3A_40  and  C3B_41 
REMARK   33  A    between atoms: C3B_41  and  C3C_42 
REMARK   34  A    between atoms: C3C_42  and  C3D_43 
REMARK   35  A    between atoms: C3D_43  and  C3E_44 
REMARK   36  A    between atoms: C3E_44  and  C3F_45 
REMARK   37  A    between atoms: C3F_45  and  C3G_46 
REMARK   38  A    between atoms: C3G_46  and  C3H_47 
ROOT
ATOM      1  C2  MX7 A 305     -14.731 -13.777   9.602  1.00 54.48     0.180 C 
ENDROOT
BRANCH   1   2
ATOM      2  C3  MX7 A 305     -15.943 -14.310  10.353  1.00 53.94     0.213 C 
BRANCH   2   3
ATOM      3  O31 MX7 A 305     -16.968 -14.680   9.412  1.00 55.94    -0.319 OA
BRANCH   3   4
ATOM      4  C31 MX7 A 305     -18.079 -13.900   9.594  1.00 55.30     0.258 C 
ATOM      5  O32 MX7 A 305     -18.135 -12.982  10.415  1.00 57.61    -0.265 OA
BRANCH   4   6
ATOM      6  C32 MX7 A 305     -19.311 -14.231   8.731  1.00 51.54     0.111 C 
BRANCH   6   7
ATOM      7  C33 MX7 A 305     -18.975 -14.453   7.252  1.00 49.21     0.010 C 
BRANCH   7   8
ATOM      8  C34 MX7 A 305     -18.780 -13.093   6.552  1.00 47.43     0.000 C 
BRANCH   8   9
ATOM      9  C35 MX7 A 305     -20.128 -12.402   6.259  1.00 45.86     0.000 C 
BRANCH   9  10
ATOM     10  C36 MX7 A 305     -21.006 -13.329   5.405  1.00 44.09     0.000 C 
BRANCH  10  11
ATOM     11  C37 MX7 A 305     -22.375 -13.552   6.085  1.00 44.79     0.004 C 
BRANCH  11  12
ATOM     12  C38 MX7 A 305     -22.927 -15.003   5.975  1.00 45.27     0.027 C 
BRANCH  12  13
ATOM     13  C39 MX7 A 305     -23.080 -15.560   7.254  1.00 44.20    -0.031 C 
ATOM     14  C3A MX7 A 305     -22.340 -16.718   7.578  1.00 43.34    -0.031 C 
BRANCH  14  15
ATOM     15  C3B MX7 A 305     -21.465 -17.227   6.612  1.00 44.12     0.027 C 
BRANCH  15  16
ATOM     16  C3C MX7 A 305     -20.188 -17.765   7.292  1.00 42.90     0.004 C 
BRANCH  16  17
ATOM     17  C3D MX7 A 305     -20.429 -17.856   8.805  1.00 42.71     0.000 C 
BRANCH  17  18
ATOM     18  C3E MX7 A 305     -19.119 -17.883   9.589  1.00 42.50     0.000 C 
BRANCH  18  19
ATOM     19  C3F MX7 A 305     -18.005 -18.536   8.744  1.00 41.47     0.000 C 
BRANCH  19  20
ATOM     20  C3G MX7 A 305     -16.634 -18.292   9.416  1.00 40.90    -0.000 C 
BRANCH  20  21
ATOM     21  C3H MX7 A 305     -15.598 -19.363   9.021  1.00 40.73    -0.005 C 
ATOM     22  C3I MX7 A 305     -14.172 -18.782   9.024  1.00 38.16     0.005 C 
ENDBRANCH  20  21
ENDBRANCH  19  20
ENDBRANCH  18  19
ENDBRANCH  17  18
ENDBRANCH  16  17
ENDBRANCH  15  16
ENDBRANCH  14  15
ENDBRANCH  12  13
ENDBRANCH  11  12
ENDBRANCH  10  11
ENDBRANCH   9  10
ENDBRANCH   8   9
ENDBRANCH   7   8
ENDBRANCH   6   7
ENDBRANCH   4   6
ENDBRANCH   3   4
ENDBRANCH   2   3
ENDBRANCH   1   2
BRANCH   1  23
ATOM     23  C1  MX7 A 305     -13.500 -14.640   9.941  1.00 57.68     0.217 C 
BRANCH  23  24
ATOM     24  O11 MX7 A 305     -12.895 -15.086   8.720  1.00 59.71    -0.280 OA
BRANCH  24  25
ATOM     25  P   MX7 A 305     -11.600 -14.388   8.058  1.00 63.58     0.422 P 
ATOM     26  O13 MX7 A 305     -12.318 -13.460   6.904  1.00 61.39    -0.617 OA
ATOM     27  O12 MX7 A 305     -10.738 -15.449   7.485  1.00 62.00    -0.617 OA
ATOM     28  O14 MX7 A 305     -11.030 -13.485   9.080  1.00 63.78    -0.617 OA
ENDBRANCH  24  25
ENDBRANCH  23  24
ENDBRANCH   1  23
BRANCH   1  29
ATOM     29  O21 MX7 A 305     -14.523 -12.402   9.970  1.00 51.80    -0.312 OA
BRANCH  29  30
ATOM     30  C21 MX7 A 305     -14.251 -11.603   8.897  1.00 50.47     0.259 C 
ATOM     31  O22 MX7 A 305     -13.280 -10.858   8.820  1.00 51.01    -0.265 OA
BRANCH  30  32
ATOM     32  C22 MX7 A 305     -15.243 -11.676   7.735  1.00 48.47     0.111 C 
BRANCH  32  33
ATOM     33  C23 MX7 A 305     -16.251 -10.530   7.854  1.00 47.13     0.010 C 
BRANCH  33  34
ATOM     34  C24 MX7 A 305     -16.111  -9.511   6.715  1.00 45.79     0.000 C 
BRANCH  34  35
ATOM     35  C25 MX7 A 305     -14.617  -9.209   6.434  1.00 44.53     0.000 C 
BRANCH  35  36
ATOM     36  C26 MX7 A 305     -14.392  -7.827   5.753  1.00 43.27     0.000 C 
BRANCH  36  37
ATOM     37  C27 MX7 A 305     -15.731  -7.244   5.277  1.00 43.49     0.004 C 
BRANCH  37  38
ATOM     38  C28 MX7 A 305     -15.557  -5.875   4.614  1.00 41.75     0.027 C 
BRANCH  38  39
ATOM     39  C29 MX7 A 305     -14.230  -5.741   4.205  1.00 41.31    -0.031 C 
ATOM     40  C2A MX7 A 305     -13.612  -4.520   4.526  1.00 41.39    -0.031 C 
BRANCH  40  41
ATOM     41  C2B MX7 A 305     -14.415  -3.604   5.206  1.00 41.30     0.027 C 
BRANCH  41  42
ATOM     42  C2C MX7 A 305     -13.888  -2.155   5.002  1.00 41.60     0.004 C 
BRANCH  42  43
ATOM     43  C2D MX7 A 305     -13.825  -1.422   6.360  1.00 41.45     0.000 C 
BRANCH  43  44
ATOM     44  C2E MX7 A 305     -13.160  -2.277   7.454  1.00 41.44     0.000 C 
BRANCH  44  45
ATOM     45  C2F MX7 A 305     -11.657  -2.435   7.120  1.00 41.85     0.000 C 
BRANCH  45  46
ATOM     46  C2G MX7 A 305     -10.812  -2.851   8.342  1.00 42.39    -0.000 C 
BRANCH  46  47
ATOM     47  C2H MX7 A 305     -10.498  -4.363   8.314  1.00 42.18    -0.005 C 
ATOM     48  C2I MX7 A 305      -9.438  -4.694   7.265  1.00 44.20     0.005 C 
ENDBRANCH  46  47
ENDBRANCH  45  46
ENDBRANCH  44  45
ENDBRANCH  43  44
ENDBRANCH  42  43
ENDBRANCH  41  42
ENDBRANCH  40  41
ENDBRANCH  38  39
ENDBRANCH  37  38
ENDBRANCH  36  37
ENDBRANCH  35  36
ENDBRANCH  34  35
ENDBRANCH  33  34
ENDBRANCH  32  33
ENDBRANCH  30  32
ENDBRANCH  29  30
ENDBRANCH   1  29
TORSDOF 38
ENDMDL
MODEL 8
REMARK VINA RESULT:      -6.0      3.907      6.308
REMARK WARNING: 32 MAX_TORS EXCEEDED!!!
REMARK  38 active torsions:
REMARK  status: ('A' for Active; 'I' for Inactive)
REMARK    1  A    between atoms: C2H_2  and  C2G_3 
REMARK    2  A    between atoms: C2G_3  and  C2F_4 
REMARK    3  A    between atoms: C2F_4  and  C2E_5 
REMARK    4  A    between atoms: C2E_5  and  C2D_6 
REMARK    5  A    between atoms: C2D_6  and  C2C_7 
REMARK    6  A    between atoms: C2C_7  and  C2B_8 
REMARK    7  A    between atoms: C2B_8  and  C2A_9 
REMARK    8  A    between atoms: C29_10  and  C28_11 
REMARK    9  A    between atoms: C28_11  and  C27_12 
REMARK   10  A    between atoms: C27_12  and  C26_13 
REMARK   11  A    between atoms: C26_13  and  C25_14 
REMARK   12  A    between atoms: C25_14  and  C24_15 
REMARK   13  A    between atoms: C24_15  and  C23_16 
REMARK   14  A    between atoms: C23_16  and  C22_17 
REMARK   15  A    between atoms: C22_17  and  C21_18 
REMARK   16  A    between atoms: C21_18  and  O21_20 
REMARK   17  A    between atoms: O21_20  and  C2_21 
REMARK   18  A    between atoms: C2_21  and  C3_28 
REMARK   19  A    between atoms: C2_21  and  C1_22 
REMARK   20  A    between atoms: C1_22  and  O11_23 
REMARK   21  A    between atoms: O11_23  and  P_24 
REMARK   22  A    between atoms: C3_28  and  O31_29 
REMARK   23  A    between atoms: O31_29  and  C31_30 
REMARK   24  A    between atoms: C31_30  and  C32_32 
REMARK   25  A    between atoms: C32_32  and  C33_33 
REMARK   26  A    between atoms: C33_33  and  C34_34 
REMARK   27  A    between atoms: C34_34  and  C35_35 
REMARK   28  A    between atoms: C35_35  and  C36_36 
REMARK   29  A    between atoms: C36_36  and  C37_37 
REMARK   30  A    between atoms: C37_37  and  C38_38 
REMARK   31  A    between atoms: C38_38  and  C39_39 
REMARK   32  A    between atoms: C3A_40  and  C3B_41 
REMARK   33  A    between atoms: C3B_41  and  C3C_42 
REMARK   34  A    between atoms: C3C_42  and  C3D_43 
REMARK   35  A    between atoms: C3D_43  and  C3E_44 
REMARK   36  A    between atoms: C3E_44  and  C3F_45 
REMARK   37  A    between atoms: C3F_45  and  C3G_46 
REMARK   38  A    between atoms: C3G_46  and  C3H_47 
ROOT
ATOM      1  C2  MX7 A 305     -20.004 -12.001   7.575  1.00 54.48     0.180 C 
ENDROOT
BRANCH   1   2
ATOM      2  C3  MX7 A 305     -20.465 -12.687   8.853  1.00 53.94     0.213 C 
BRANCH   2   3
ATOM      3  O31 MX7 A 305     -19.522 -13.715   9.214  1.00 55.94    -0.319 OA
BRANCH   3   4
ATOM      4  C31 MX7 A 305     -20.181 -14.791   9.748  1.00 55.30     0.258 C 
ATOM      5  O32 MX7 A 305     -21.330 -15.107   9.433  1.00 57.61    -0.265 OA
BRANCH   4   6
ATOM      6  C32 MX7 A 305     -19.427 -15.611  10.811  1.00 51.54     0.111 C 
BRANCH   6   7
ATOM      7  C33 MX7 A 305     -19.241 -17.083  10.425  1.00 49.21     0.010 C 
BRANCH   7   8
ATOM      8  C34 MX7 A 305     -17.886 -17.593  10.956  1.00 47.43     0.000 C 
BRANCH   8   9
ATOM      9  C35 MX7 A 305     -16.970 -18.079   9.814  1.00 45.86     0.000 C 
BRANCH   9  10
ATOM     10  C36 MX7 A 305     -16.088 -16.917   9.333  1.00 44.09     0.000 C 
BRANCH  10  11
ATOM     11  C37 MX7 A 305     -15.130 -16.466  10.458  1.00 44.79     0.004 C 
BRANCH  11  12
ATOM     12  C38 MX7 A 305     -15.351 -15.008  10.955  1.00 45.27     0.027 C 
BRANCH  12  13
ATOM     13  C39 MX7 A 305     -15.873 -14.219   9.918  1.00 44.20    -0.031 C 
ATOM     14  C3A MX7 A 305     -15.045 -13.230   9.342  1.00 43.34    -0.031 C 
BRANCH  14  15
ATOM     15  C3B MX7 A 305     -13.733 -13.117   9.817  1.00 44.12     0.027 C 
BRANCH  15  16
ATOM     16  C3C MX7 A 305     -12.835 -12.484   8.733  1.00 42.90     0.004 C 
BRANCH  16  17
ATOM     17  C3D MX7 A 305     -12.493 -13.550   7.683  1.00 42.71     0.000 C 
BRANCH  17  18
ATOM     18  C3E MX7 A 305     -12.236 -14.914   8.321  1.00 42.50     0.000 C 
BRANCH  18  19
ATOM     19  C3F MX7 A 305     -12.403 -16.033   7.271  1.00 41.47     0.000 C 
BRANCH  19  20
ATOM     20  C3G MX7 A 305     -11.975 -15.509   5.881  1.00 40.90    -0.000 C 
BRANCH  20  21
ATOM     21  C3H MX7 A 305     -12.674 -16.269   4.736  1.00 40.73    -0.005 C 
ATOM     22  C3I MX7 A 305     -13.062 -15.313   3.593  1.00 38.16     0.005 C 
ENDBRANCH  20  21
ENDBRANCH  19  20
ENDBRANCH  18  19
ENDBRANCH  17  18
ENDBRANCH  16  17
ENDBRANCH  15  16
ENDBRANCH  14  15
ENDBRANCH  12  13
ENDBRANCH  11  12
ENDBRANCH  10  11
ENDBRANCH   9  10
ENDBRANCH   8   9
ENDBRANCH   7   8
ENDBRANCH   6   7
ENDBRANCH   4   6
ENDBRANCH   3   4
ENDBRANCH   2   3
ENDBRANCH   1   2
BRANCH   1  23
ATOM     23  C1  MX7 A 305     -20.436 -12.842   6.358  1.00 57.68     0.217 C 
BRANCH  23  24
ATOM     24  O11 MX7 A 305     -21.767 -13.326   6.579  1.00 59.71    -0.280 OA
BRANCH  24  25
ATOM     25  P   MX7 A 305     -22.466 -14.462   5.672  1.00 63.58     0.422 P 
ATOM     26  O13 MX7 A 305     -23.790 -14.803   6.588  1.00 61.39    -0.617 OA
ATOM     27  O12 MX7 A 305     -21.535 -15.610   5.558  1.00 62.00    -0.617 OA
ATOM     28  O14 MX7 A 305     -22.929 -13.798   4.434  1.00 63.78    -0.617 OA
ENDBRANCH  24  25
ENDBRANCH  23  24
ENDBRANCH   1  23
BRANCH   1  29
ATOM     29  O21 MX7 A 305     -18.574 -11.845   7.621  1.00 51.80    -0.312 OA
BRANCH  29  30
ATOM     30  C21 MX7 A 305     -18.190 -10.555   7.850  1.00 50.47     0.259 C 
ATOM     31  O22 MX7 A 305     -18.960  -9.600   7.877  1.00 51.01    -0.265 OA
BRANCH  30  32
ATOM     32  C22 MX7 A 305     -16.696 -10.330   8.088  1.00 48.47     0.111 C 
BRANCH  32  33
ATOM     33  C23 MX7 A 305     -15.931 -10.566   6.783  1.00 47.13     0.010 C 
BRANCH  33  34
ATOM     34  C24 MX7 A 305     -14.685  -9.679   6.668  1.00 45.79     0.000 C 
BRANCH  34  35
ATOM     35  C25 MX7 A 305     -15.023  -8.356   5.935  1.00 44.53     0.000 C 
BRANCH  35  36
ATOM     36  C26 MX7 A 305     -13.765  -7.494   5.621  1.00 43.27     0.000 C 
BRANCH  36  37
ATOM     37  C27 MX7 A 305     -13.746  -7.104   4.136  1.00 43.49     0.004 C 
BRANCH  37  38
ATOM     38  C28 MX7 A 305     -13.828  -5.588   3.939  1.00 41.75     0.027 C 
BRANCH  38  39
ATOM     39  C29 MX7 A 305     -14.910  -5.100   4.675  1.00 41.31    -0.031 C 
ATOM     40  C2A MX7 A 305     -14.783  -3.781   5.146  1.00 41.39    -0.031 C 
BRANCH  40  41
ATOM     41  C2B MX7 A 305     -13.588  -3.141   4.817  1.00 41.30     0.027 C 
BRANCH  41  42
ATOM     42  C2C MX7 A 305     -13.267  -2.019   5.844  1.00 41.60     0.004 C 
BRANCH  42  43
ATOM     43  C2D MX7 A 305     -13.752  -2.438   7.250  1.00 41.45     0.000 C 
BRANCH  43  44
ATOM     44  C2E MX7 A 305     -12.705  -2.142   8.341  1.00 41.44     0.000 C 
BRANCH  44  45
ATOM     45  C2F MX7 A 305     -11.293  -2.389   7.757  1.00 41.85     0.000 C 
BRANCH  45  46
ATOM     46  C2G MX7 A 305     -10.507  -3.471   8.528  1.00 42.39    -0.000 C 
BRANCH  46  47
ATOM     47  C2H MX7 A 305      -9.988  -4.569   7.573  1.00 42.18    -0.005 C 
ATOM     48  C2I MX7 A 305     -11.052  -4.969   6.552  1.00 44.20     0.005 C 
ENDBRANCH  46  47
ENDBRANCH  45  46
ENDBRANCH  44  45
ENDBRANCH  43  44
ENDBRANCH  42  43
ENDBRANCH  41  42
ENDBRANCH  40  41
ENDBRANCH  38  39
ENDBRANCH  37  38
ENDBRANCH  36  37
ENDBRANCH  35  36
ENDBRANCH  34  35
ENDBRANCH  33  34
ENDBRANCH  32  33
ENDBRANCH  30  32
ENDBRANCH  29  30
ENDBRANCH   1  29
TORSDOF 38
ENDMDL
MODEL 9
REMARK VINA RESULT:      -5.9      3.863      5.781
REMARK WARNING: 32 MAX_TORS EXCEEDED!!!
REMARK  38 active torsions:
REMARK  status: ('A' for Active; 'I' for Inactive)
REMARK    1  A    between atoms: C2H_2  and  C2G_3 
REMARK    2  A    between atoms: C2G_3  and  C2F_4 
REMARK    3  A    between atoms: C2F_4  and  C2E_5 
REMARK    4  A    between atoms: C2E_5  and  C2D_6 
REMARK    5  A    between atoms: C2D_6  and  C2C_7 
REMARK    6  A    between atoms: C2C_7  and  C2B_8 
REMARK    7  A    between atoms: C2B_8  and  C2A_9 
REMARK    8  A    between atoms: C29_10  and  C28_11 
REMARK    9  A    between atoms: C28_11  and  C27_12 
REMARK   10  A    between atoms: C27_12  and  C26_13 
REMARK   11  A    between atoms: C26_13  and  C25_14 
REMARK   12  A    between atoms: C25_14  and  C24_15 
REMARK   13  A    between atoms: C24_15  and  C23_16 
REMARK   14  A    between atoms: C23_16  and  C22_17 
REMARK   15  A    between atoms: C22_17  and  C21_18 
REMARK   16  A    between atoms: C21_18  and  O21_20 
REMARK   17  A    between atoms: O21_20  and  C2_21 
REMARK   18  A    between atoms: C2_21  and  C3_28 
REMARK   19  A    between atoms: C2_21  and  C1_22 
REMARK   20  A    between atoms: C1_22  and  O11_23 
REMARK   21  A    between atoms: O11_23  and  P_24 
REMARK   22  A    between atoms: C3_28  and  O31_29 
REMARK   23  A    between atoms: O31_29  and  C31_30 
REMARK   24  A    between atoms: C31_30  and  C32_32 
REMARK   25  A    between atoms: C32_32  and  C33_33 
REMARK   26  A    between atoms: C33_33  and  C34_34 
REMARK   27  A    between atoms: C34_34  and  C35_35 
REMARK   28  A    between atoms: C35_35  and  C36_36 
REMARK   29  A    between atoms: C36_36  and  C37_37 
REMARK   30  A    between atoms: C37_37  and  C38_38 
REMARK   31  A    between atoms: C38_38  and  C39_39 
REMARK   32  A    between atoms: C3A_40  and  C3B_41 
REMARK   33  A    between atoms: C3B_41  and  C3C_42 
REMARK   34  A    between atoms: C3C_42  and  C3D_43 
REMARK   35  A    between atoms: C3D_43  and  C3E_44 
REMARK   36  A    between atoms: C3E_44  and  C3F_45 
REMARK   37  A    between atoms: C3F_45  and  C3G_46 
REMARK   38  A    between atoms: C3G_46  and  C3H_47 
ROOT
ATOM      1  C2  MX7 A 305     -14.661 -14.024   9.578  1.00 54.48     0.180 C 
ENDROOT
BRANCH   1   2
ATOM      2  C3  MX7 A 305     -15.802 -14.701  10.324  1.00 53.94     0.213 C 
BRANCH   2   3
ATOM      3  O31 MX7 A 305     -16.868 -15.000   9.403  1.00 55.94    -0.319 OA
BRANCH   3   4
ATOM      4  C31 MX7 A 305     -17.920 -14.145   9.606  1.00 55.30     0.258 C 
ATOM      5  O32 MX7 A 305     -17.846 -13.136  10.309  1.00 57.61    -0.265 OA
BRANCH   4   6
ATOM      6  C32 MX7 A 305     -19.253 -14.509   8.928  1.00 51.54     0.111 C 
BRANCH   6   7
ATOM      7  C33 MX7 A 305     -19.148 -14.622   7.402  1.00 49.21     0.010 C 
BRANCH   7   8
ATOM      8  C34 MX7 A 305     -18.596 -13.306   6.820  1.00 47.43     0.000 C 
BRANCH   8   9
ATOM      9  C35 MX7 A 305     -19.619 -12.157   6.931  1.00 45.86     0.000 C 
BRANCH   9  10
ATOM     10  C36 MX7 A 305     -20.822 -12.450   6.022  1.00 44.09     0.000 C 
BRANCH  10  11
ATOM     11  C37 MX7 A 305     -22.094 -12.679   6.867  1.00 44.79     0.004 C 
BRANCH  11  12
ATOM     12  C38 MX7 A 305     -23.183 -13.552   6.180  1.00 45.27     0.027 C 
BRANCH  12  13
ATOM     13  C39 MX7 A 305     -22.792 -13.869   4.870  1.00 44.20    -0.031 C 
ATOM     14  C3A MX7 A 305     -23.624 -13.466   3.802  1.00 43.34    -0.031 C 
BRANCH  14  15
ATOM     15  C3B MX7 A 305     -24.779 -12.740   4.111  1.00 44.12     0.027 C 
BRANCH  15  16
ATOM     16  C3C MX7 A 305     -24.858 -11.477   3.226  1.00 42.90     0.004 C 
BRANCH  16  17
ATOM     17  C3D MX7 A 305     -23.717 -11.515   2.200  1.00 42.71     0.000 C 
BRANCH  17  18
ATOM     18  C3E MX7 A 305     -23.496 -10.154   1.545  1.00 42.50     0.000 C 
BRANCH  18  19
ATOM     19  C3F MX7 A 305     -23.195 -10.328   0.041  1.00 41.47     0.000 C 
BRANCH  19  20
ATOM     20  C3G MX7 A 305     -24.062 -11.473  -0.532  1.00 40.90    -0.000 C 
BRANCH  20  21
ATOM     21  C3H MX7 A 305     -23.508 -12.002  -1.870  1.00 40.73    -0.005 C 
ATOM     22  C3I MX7 A 305     -24.237 -11.360  -3.065  1.00 38.16     0.005 C 
ENDBRANCH  20  21
ENDBRANCH  19  20
ENDBRANCH  18  19
ENDBRANCH  17  18
ENDBRANCH  16  17
ENDBRANCH  15  16
ENDBRANCH  14  15
ENDBRANCH  12  13
ENDBRANCH  11  12
ENDBRANCH  10  11
ENDBRANCH   9  10
ENDBRANCH   8   9
ENDBRANCH   7   8
ENDBRANCH   6   7
ENDBRANCH   4   6
ENDBRANCH   3   4
ENDBRANCH   2   3
ENDBRANCH   1   2
BRANCH   1  23
ATOM     23  C1  MX7 A 305     -13.370 -14.845   9.764  1.00 57.68     0.217 C 
BRANCH  23  24
ATOM     24  O11 MX7 A 305     -12.860 -15.205   8.474  1.00 59.71    -0.280 OA
BRANCH  24  25
ATOM     25  P   MX7 A 305     -11.698 -14.385   7.712  1.00 63.58     0.422 P 
ATOM     26  O13 MX7 A 305     -11.128 -13.459   8.947  1.00 61.39    -0.617 OA
ATOM     27  O12 MX7 A 305     -12.320 -13.583   6.632  1.00 62.00    -0.617 OA
ATOM     28  O14 MX7 A 305     -10.647 -15.363   7.356  1.00 63.78    -0.617 OA
ENDBRANCH  24  25
ENDBRANCH  23  24
ENDBRANCH   1  23
BRANCH   1  29
ATOM     29  O21 MX7 A 305     -14.505 -12.686  10.082  1.00 51.80    -0.312 OA
BRANCH  29  30
ATOM     30  C21 MX7 A 305     -14.220 -11.781   9.100  1.00 50.47     0.259 C 
ATOM     31  O22 MX7 A 305     -13.286 -10.987   9.143  1.00 51.01    -0.265 OA
BRANCH  30  32
ATOM     32  C22 MX7 A 305     -15.146 -11.795   7.882  1.00 48.47     0.111 C 
BRANCH  32  33
ATOM     33  C23 MX7 A 305     -16.185 -10.679   8.021  1.00 47.13     0.010 C 
BRANCH  33  34
ATOM     34  C24 MX7 A 305     -16.128  -9.681   6.856  1.00 45.79     0.000 C 
BRANCH  34  35
ATOM     35  C25 MX7 A 305     -14.658  -9.389   6.461  1.00 44.53     0.000 C 
BRANCH  35  36
ATOM     36  C26 MX7 A 305     -14.468  -7.984   5.817  1.00 43.27     0.000 C 
BRANCH  36  37
ATOM     37  C27 MX7 A 305     -15.830  -7.309   5.603  1.00 43.49     0.004 C 
BRANCH  37  38
ATOM     38  C28 MX7 A 305     -15.701  -5.980   4.853  1.00 41.75     0.027 C 
BRANCH  38  39
ATOM     39  C29 MX7 A 305     -14.448  -5.933   4.240  1.00 41.31    -0.031 C 
ATOM     40  C2A MX7 A 305     -13.787  -4.694   4.294  1.00 41.39    -0.031 C 
BRANCH  40  41
ATOM     41  C2B MX7 A 305     -14.478  -3.675   4.951  1.00 41.30     0.027 C 
BRANCH  41  42
ATOM     42  C2C MX7 A 305     -13.705  -2.330   4.846  1.00 41.60     0.004 C 
BRANCH  42  43
ATOM     43  C2D MX7 A 305     -13.824  -1.550   6.173  1.00 41.45     0.000 C 
BRANCH  43  44
ATOM     44  C2E MX7 A 305     -13.246  -2.335   7.366  1.00 41.44     0.000 C 
BRANCH  44  45
ATOM     45  C2F MX7 A 305     -11.850  -2.878   6.976  1.00 41.85     0.000 C 
BRANCH  45  46
ATOM     46  C2G MX7 A 305     -10.893  -2.990   8.181  1.00 42.39    -0.000 C 
BRANCH  46  47
ATOM     47  C2H MX7 A 305     -10.292  -4.409   8.287  1.00 42.18    -0.005 C 
ATOM     48  C2I MX7 A 305      -9.441  -4.747   7.063  1.00 44.20     0.005 C 
ENDBRANCH  46  47
ENDBRANCH  45  46
ENDBRANCH  44  45
ENDBRANCH  43  44
ENDBRANCH  42  43
ENDBRANCH  41  42
ENDBRANCH  40  41
ENDBRANCH  38  39
ENDBRANCH  37  38
ENDBRANCH  36  37
ENDBRANCH  35  36
ENDBRANCH  34  35
ENDBRANCH  33  34
ENDBRANCH  32  33
ENDBRANCH  30  32
ENDBRANCH  29  30
ENDBRANCH   1  29
TORSDOF 38
ENDMDL
