MODEL 1
REMARK VINA RESULT:      -8.2      0.000      0.000
REMARK WARNING: 32 MAX_TORS EXCEEDED!!!
REMARK  33 active torsions:
REMARK  status: ('A' for Active; 'I' for Inactive)
REMARK    1  A    between atoms: C1_1  and  CAH_24 
REMARK    2  A    between atoms: CBA_3  and  CAZ_4 
REMARK    3  A    between atoms: CAZ_4  and  CAY_5 
REMARK    4  A    between atoms: CAY_5  and  CAX_6 
REMARK    5  A    between atoms: CAX_6  and  CAW_7 
REMARK    6  A    between atoms: CAW_7  and  CAV_8 
REMARK    7  A    between atoms: CAV_8  and  CAU_9 
REMARK    8  A    between atoms: CAU_9  and  CAT_10 
REMARK    9  A    between atoms: CAT_10  and  CAS_11 
REMARK   10  A    between atoms: CAS_11  and  CAR_12 
REMARK   11  A    between atoms: CAR_12  and  CAQ_13 
REMARK   12  A    between atoms: CAQ_13  and  CAP_14 
REMARK   13  A    between atoms: CAP_14  and  CAO_15 
REMARK   14  A    between atoms: CAO_15  and  CAN_16 
REMARK   15  A    between atoms: CAN_16  and  CAM_19 
REMARK   16  A    between atoms: CAN_16  and  OBN_17 
REMARK   17  A    between atoms: CAM_19  and  OBL_20 
REMARK   18  A    between atoms: CAM_19  and  CAL_22 
REMARK   19  A    between atoms: CAL_22  and  CAK_23 
REMARK   20  A    between atoms: CAL_22  and  NBC_39 
REMARK   21  A    between atoms: CG_26  and  CG5_27 
REMARK   22  A    between atoms: CG5_27  and  OG6_28 
REMARK   23  A    between atoms: CG4_30  and  OG5_31 
REMARK   24  A    between atoms: CG3_33  and  OG4_34 
REMARK   25  A    between atoms: CG2_36  and  OG3_37 
REMARK       I    between atoms: NBC_39  and  CBD_41 
REMARK   26  A    between atoms: CBD_41  and  CBE_43 
REMARK   27  A    between atoms: CBE_43  and  CBF_44 
REMARK   28  A    between atoms: CBF_44  and  CBG_45 
REMARK   29  A    between atoms: CBG_45  and  CBH_46 
REMARK   30  A    between atoms: CBH_46  and  CBI_47 
REMARK   31  A    between atoms: CBI_47  and  CBJ_48 
REMARK   32  A    between atoms: CBJ_48  and  CBK_49 
REMARK   33  A    between atoms: CBK_49  and  CBO_50 
ROOT
ATOM      1  CAL 49X A 306     -15.648 -10.065   6.749  1.00 62.39     0.138 C 
ENDROOT
BRANCH   1   2
ATOM      2  CAM 49X A 306     -17.111 -10.283   7.217  1.00 59.99     0.173 C 
BRANCH   2   3
ATOM      3  CAN 49X A 306     -17.628 -11.686   7.087  1.00 59.47     0.149 C 
BRANCH   3   4
ATOM      4  OBN 49X A 306     -16.960 -12.267   5.963  1.00 60.35    -0.393 OA
ATOM      5  HBN 49X A 306     -16.911 -13.201   6.128  1.00  0.00     0.210 HD
ENDBRANCH   3   4
BRANCH   3   6
ATOM      6  CAO 49X A 306     -19.146 -11.810   6.982  1.00 59.79     0.034 C 
BRANCH   6   7
ATOM      7  CAP 49X A 306     -19.412 -12.957   6.012  1.00 64.31     0.002 C 
BRANCH   7   8
ATOM      8  CAQ 49X A 306     -20.822 -13.521   6.192  1.00 70.99     0.000 C 
BRANCH   8   9
ATOM      9  CAR 49X A 306     -21.569 -13.568   4.852  1.00 68.44     0.000 C 
BRANCH   9  10
ATOM     10  CAS 49X A 306     -22.932 -12.848   4.917  1.00 67.12     0.000 C 
BRANCH  10  11
ATOM     11  CAT 49X A 306     -23.978 -13.446   3.953  1.00 57.87     0.000 C 
BRANCH  11  12
ATOM     12  CAU 49X A 306     -24.653 -12.362   3.108  1.00 52.32     0.000 C 
BRANCH  12  13
ATOM     13  CAV 49X A 306     -24.316 -10.969   3.609  1.00 49.84     0.000 C 
BRANCH  13  14
ATOM     14  CAW 49X A 306     -24.345  -9.974   2.465  1.00 48.09     0.000 C 
BRANCH  14  15
ATOM     15  CAX 49X A 306     -23.454 -10.479   1.336  1.00 51.12     0.000 C 
BRANCH  15  16
ATOM     16  CAY 49X A 306     -24.220 -10.545   0.016  1.00 50.82     0.000 C 
BRANCH  16  17
ATOM     17  CAZ 49X A 306     -23.534 -11.522  -0.946  1.00 52.17    -0.000 C 
BRANCH  17  18
ATOM     18  CBA 49X A 306     -23.807 -11.140  -2.410  1.00 50.92    -0.005 C 
ATOM     19  CBB 49X A 306     -23.673 -12.358  -3.347  1.00 47.98     0.005 C 
ENDBRANCH  17  18
ENDBRANCH  16  17
ENDBRANCH  15  16
ENDBRANCH  14  15
ENDBRANCH  13  14
ENDBRANCH  12  13
ENDBRANCH  11  12
ENDBRANCH  10  11
ENDBRANCH   9  10
ENDBRANCH   8   9
ENDBRANCH   7   8
ENDBRANCH   6   7
ENDBRANCH   3   6
ENDBRANCH   2   3
BRANCH   2  20
ATOM     20  OBL 49X A 306     -17.182 -10.116   8.615  1.00 62.78    -0.391 OA
ATOM     21  HBL 49X A 306     -17.269 -11.021   8.891  1.00  0.00     0.210 HD
ENDBRANCH   2  20
ENDBRANCH   1   2
BRANCH   1  22
ATOM     22  CAK 49X A 306     -14.635 -10.361   7.887  1.00 65.93    -0.001 C 
ATOM     23  CAH 49X A 306     -14.044 -11.629   7.993  1.00 63.76     0.005 C 
BRANCH  23  24
ATOM     24  C1  49X A 306     -13.052 -11.988   8.929  1.00 58.39     0.176 C 
ATOM     25  OG  49X A 306     -13.460 -12.786  10.076  1.00 55.42    -0.369 OA
ATOM     26  CG  49X A 306     -14.191 -13.946   9.570  1.00 52.88     0.177 C 
ATOM     27  CG4 49X A 306     -13.245 -14.879   8.753  1.00 51.93     0.180 C 
ATOM     28  CG3 49X A 306     -12.494 -14.113   7.654  1.00 52.27     0.181 C 
ATOM     29  CG2 49X A 306     -11.941 -12.769   8.186  1.00 54.21     0.182 C 
BRANCH  26  30
ATOM     30  CG5 49X A 306     -15.037 -14.603  10.657  1.00 49.26     0.198 C 
BRANCH  30  31
ATOM     31  OG6 49X A 306     -15.017 -15.977  10.362  1.00 49.47    -0.398 OA
ATOM     32  HG6 49X A 306     -15.652 -16.092   9.664  1.00  0.00     0.209 HD
ENDBRANCH  30  31
ENDBRANCH  26  30
BRANCH  27  33
ATOM     33  OG5 49X A 306     -12.316 -15.546   9.610  1.00 46.63    -0.390 OA
ATOM     34  HG5 49X A 306     -11.696 -16.061   9.107  1.00  0.00     0.210 HD
ENDBRANCH  27  33
BRANCH  28  35
ATOM     35  OG4 49X A 306     -11.464 -14.971   7.159  1.00 55.09    -0.390 OA
ATOM     36  HG4 49X A 306     -11.382 -15.698   7.766  1.00  0.00     0.210 HD
ENDBRANCH  28  35
BRANCH  29  37
ATOM     37  OG3 49X A 306     -11.379 -11.933   7.154  1.00 49.35    -0.390 OA
ATOM     38  HG3 49X A 306     -11.852 -12.075   6.342  1.00  0.00     0.210 HD
ENDBRANCH  29  37
ENDBRANCH  23  24
ENDBRANCH   1  22
BRANCH   1  39
ATOM     39  NBC 49X A 306     -15.490  -8.691   6.247  1.00 61.32    -0.351 N 
ATOM     40  CBD 49X A 306     -14.311  -8.214   5.848  1.00 63.21     0.218 C 
ATOM     41  OBM 49X A 306     -13.240  -8.833   5.919  1.00 71.44    -0.274 OA
ATOM     42  HBC 49X A 306     -16.308  -8.084   6.203  1.00  0.00     0.163 HD
BRANCH  40  43
ATOM     43  CBE 49X A 306     -14.360  -6.791   5.308  1.00 56.66     0.103 C 
BRANCH  43  44
ATOM     44  CBF 49X A 306     -15.529  -6.630   4.351  1.00 57.14     0.009 C 
BRANCH  44  45
ATOM     45  CBG 49X A 306     -16.479  -5.525   4.842  1.00 57.97     0.000 C 
BRANCH  45  46
ATOM     46  CBH 49X A 306     -15.729  -4.428   5.610  1.00 56.96     0.000 C 
BRANCH  46  47
ATOM     47  CBI 49X A 306     -15.662  -3.120   4.821  1.00 57.63     0.000 C 
BRANCH  47  48
ATOM     48  CBJ 49X A 306     -14.308  -2.447   5.006  1.00 60.39     0.005 C 
BRANCH  48  49
ATOM     49  CBK 49X A 306     -13.152  -3.437   4.868  1.00 65.37     0.038 C 
BRANCH  49  50
ATOM     50  CBO 49X A 306     -12.235  -3.440   6.116  1.00 75.84    -0.058 A 
ATOM     51  CBR 49X A 306     -12.216  -2.365   7.021  1.00 77.45     0.007 A 
ATOM     52  CBS 49X A 306     -11.375  -2.376   8.142  1.00 75.50     0.001 A 
ATOM     53  CBT 49X A 306     -10.551  -3.473   8.370  1.00 74.02     0.000 A 
ATOM     54  CBU 49X A 306     -10.565  -4.546   7.478  1.00 75.63     0.001 A 
ATOM     55  CBV 49X A 306     -11.399  -4.533   6.359  1.00 77.20     0.007 A 
ENDBRANCH  49  50
ENDBRANCH  48  49
ENDBRANCH  47  48
ENDBRANCH  46  47
ENDBRANCH  45  46
ENDBRANCH  44  45
ENDBRANCH  43  44
ENDBRANCH  40  43
ENDBRANCH   1  39
TORSDOF 33
ENDMDL
MODEL 2
REMARK VINA RESULT:      -8.0      3.069      4.644
REMARK WARNING: 32 MAX_TORS EXCEEDED!!!
REMARK  33 active torsions:
REMARK  status: ('A' for Active; 'I' for Inactive)
REMARK    1  A    between atoms: C1_1  and  CAH_24 
REMARK    2  A    between atoms: CBA_3  and  CAZ_4 
REMARK    3  A    between atoms: CAZ_4  and  CAY_5 
REMARK    4  A    between atoms: CAY_5  and  CAX_6 
REMARK    5  A    between atoms: CAX_6  and  CAW_7 
REMARK    6  A    between atoms: CAW_7  and  CAV_8 
REMARK    7  A    between atoms: CAV_8  and  CAU_9 
REMARK    8  A    between atoms: CAU_9  and  CAT_10 
REMARK    9  A    between atoms: CAT_10  and  CAS_11 
REMARK   10  A    between atoms: CAS_11  and  CAR_12 
REMARK   11  A    between atoms: CAR_12  and  CAQ_13 
REMARK   12  A    between atoms: CAQ_13  and  CAP_14 
REMARK   13  A    between atoms: CAP_14  and  CAO_15 
REMARK   14  A    between atoms: CAO_15  and  CAN_16 
REMARK   15  A    between atoms: CAN_16  and  CAM_19 
REMARK   16  A    between atoms: CAN_16  and  OBN_17 
REMARK   17  A    between atoms: CAM_19  and  OBL_20 
REMARK   18  A    between atoms: CAM_19  and  CAL_22 
REMARK   19  A    between atoms: CAL_22  and  CAK_23 
REMARK   20  A    between atoms: CAL_22  and  NBC_39 
REMARK   21  A    between atoms: CG_26  and  CG5_27 
REMARK   22  A    between atoms: CG5_27  and  OG6_28 
REMARK   23  A    between atoms: CG4_30  and  OG5_31 
REMARK   24  A    between atoms: CG3_33  and  OG4_34 
REMARK   25  A    between atoms: CG2_36  and  OG3_37 
REMARK       I    between atoms: NBC_39  and  CBD_41 
REMARK   26  A    between atoms: CBD_41  and  CBE_43 
REMARK   27  A    between atoms: CBE_43  and  CBF_44 
REMARK   28  A    between atoms: CBF_44  and  CBG_45 
REMARK   29  A    between atoms: CBG_45  and  CBH_46 
REMARK   30  A    between atoms: CBH_46  and  CBI_47 
REMARK   31  A    between atoms: CBI_47  and  CBJ_48 
REMARK   32  A    between atoms: CBJ_48  and  CBK_49 
REMARK   33  A    between atoms: CBK_49  and  CBO_50 
ROOT
ATOM      1  CAL 49X A 306     -16.287 -11.757   8.605  1.00 62.39     0.138 C 
ENDROOT
BRANCH   1   2
ATOM      2  CAM 49X A 306     -17.519 -11.067   9.248  1.00 59.99     0.173 C 
BRANCH   2   3
ATOM      3  CAN 49X A 306     -18.545 -10.549   8.283  1.00 59.47     0.149 C 
BRANCH   3   4
ATOM      4  OBN 49X A 306     -18.330  -9.139   8.172  1.00 60.35    -0.393 OA
ATOM      5  HBN 49X A 306     -17.472  -8.964   8.541  1.00  0.00     0.210 HD
ENDBRANCH   3   4
BRANCH   3   6
ATOM      6  CAO 49X A 306     -19.993 -10.885   8.634  1.00 59.79     0.034 C 
BRANCH   6   7
ATOM      7  CAP 49X A 306     -20.568 -11.603   7.417  1.00 64.31     0.002 C 
BRANCH   7   8
ATOM      8  CAQ 49X A 306     -19.502 -12.445   6.715  1.00 70.99     0.000 C 
BRANCH   8   9
ATOM      9  CAR 49X A 306     -20.099 -13.200   5.519  1.00 68.44     0.000 C 
BRANCH   9  10
ATOM     10  CAS 49X A 306     -21.593 -13.528   5.722  1.00 67.12     0.000 C 
BRANCH  10  11
ATOM     11  CAT 49X A 306     -21.885 -15.043   5.714  1.00 57.87     0.000 C 
BRANCH  11  12
ATOM     12  CAU 49X A 306     -22.573 -15.492   7.006  1.00 52.32     0.000 C 
BRANCH  12  13
ATOM     13  CAV 49X A 306     -22.855 -14.320   7.928  1.00 49.84     0.000 C 
BRANCH  13  14
ATOM     14  CAW 49X A 306     -22.142 -14.507   9.254  1.00 48.09     0.000 C 
BRANCH  14  15
ATOM     15  CAX 49X A 306     -21.122 -15.632   9.124  1.00 51.12     0.000 C 
BRANCH  15  16
ATOM     16  CAY 49X A 306     -19.705 -15.125   9.383  1.00 50.82     0.000 C 
BRANCH  16  17
ATOM     17  CAZ 49X A 306     -18.758 -15.614   8.282  1.00 52.17    -0.000 C 
BRANCH  17  18
ATOM     18  CBA 49X A 306     -19.290 -16.898   7.624  1.00 50.92    -0.005 C 
ATOM     19  CBB 49X A 306     -18.615 -18.155   8.211  1.00 47.98     0.005 C 
ENDBRANCH  17  18
ENDBRANCH  16  17
ENDBRANCH  15  16
ENDBRANCH  14  15
ENDBRANCH  13  14
ENDBRANCH  12  13
ENDBRANCH  11  12
ENDBRANCH  10  11
ENDBRANCH   9  10
ENDBRANCH   8   9
ENDBRANCH   7   8
ENDBRANCH   6   7
ENDBRANCH   3   6
ENDBRANCH   2   3
BRANCH   2  20
ATOM     20  OBL 49X A 306     -18.285 -12.029   9.938  1.00 62.78    -0.391 OA
ATOM     21  HBL 49X A 306     -18.120 -11.767  10.836  1.00  0.00     0.210 HD
ENDBRANCH   2  20
ENDBRANCH   1   2
BRANCH   1  22
ATOM     22  CAK 49X A 306     -15.549 -12.668   9.622  1.00 65.93    -0.001 C 
ATOM     23  CAH 49X A 306     -14.331 -13.273   9.274  1.00 63.76     0.005 C 
BRANCH  23  24
ATOM     24  C1  49X A 306     -13.531 -14.047  10.140  1.00 58.39     0.176 C 
ATOM     25  OG  49X A 306     -13.970 -15.404  10.434  1.00 55.42    -0.369 OA
ATOM     26  CG  49X A 306     -14.219 -16.075   9.160  1.00 52.88     0.177 C 
ATOM     27  CG4 49X A 306     -12.891 -16.251   8.362  1.00 51.93     0.180 C 
ATOM     28  CG3 49X A 306     -12.136 -14.923   8.206  1.00 52.27     0.181 C 
ATOM     29  CG2 49X A 306     -12.108 -14.135   9.538  1.00 54.21     0.182 C 
BRANCH  26  30
ATOM     30  CG5 49X A 306     -15.090 -17.316   9.332  1.00 49.26     0.198 C 
BRANCH  30  31
ATOM     31  OG6 49X A 306     -14.457 -18.077  10.329  1.00 49.47    -0.398 OA
ATOM     32  HG6 49X A 306     -14.199 -18.886   9.901  1.00  0.00     0.209 HD
ENDBRANCH  30  31
ENDBRANCH  26  30
BRANCH  27  33
ATOM     33  OG5 49X A 306     -12.048 -17.227   8.976  1.00 46.63    -0.390 OA
ATOM     34  HG5 49X A 306     -11.478 -17.637   8.337  1.00  0.00     0.210 HD
ENDBRANCH  27  33
BRANCH  28  35
ATOM     35  OG4 49X A 306     -10.825 -15.228   7.724  1.00 55.09    -0.390 OA
ATOM     36  HG4 49X A 306     -10.271 -14.478   7.908  1.00  0.00     0.210 HD
ENDBRANCH  28  35
BRANCH  29  37
ATOM     37  OG3 49X A 306     -11.563 -12.806   9.405  1.00 49.35    -0.390 OA
ATOM     38  HG3 49X A 306     -11.479 -12.413  10.266  1.00  0.00     0.210 HD
ENDBRANCH  29  37
ENDBRANCH  23  24
ENDBRANCH   1  22
BRANCH   1  39
ATOM     39  NBC 49X A 306     -15.381 -10.738   8.056  1.00 61.32    -0.351 N 
ATOM     40  CBD 49X A 306     -15.351 -10.441   6.756  1.00 63.21     0.218 C 
ATOM     41  OBM 49X A 306     -16.014 -11.023   5.886  1.00 71.44    -0.274 OA
ATOM     42  HBC 49X A 306     -14.755 -10.241   8.689  1.00  0.00     0.163 HD
BRANCH  40  43
ATOM     43  CBE 49X A 306     -14.389  -9.319   6.390  1.00 56.66     0.103 C 
BRANCH  43  44
ATOM     44  CBF 49X A 306     -15.157  -8.115   5.872  1.00 57.14     0.009 C 
BRANCH  44  45
ATOM     45  CBG 49X A 306     -14.185  -7.023   5.392  1.00 57.97     0.000 C 
BRANCH  45  46
ATOM     46  CBH 49X A 306     -14.884  -5.992   4.495  1.00 56.96     0.000 C 
BRANCH  46  47
ATOM     47  CBI 49X A 306     -15.547  -4.879   5.310  1.00 57.63     0.000 C 
BRANCH  47  48
ATOM     48  CBJ 49X A 306     -14.844  -3.549   5.075  1.00 60.39     0.005 C 
BRANCH  48  49
ATOM     49  CBK 49X A 306     -13.373  -3.733   4.703  1.00 65.37     0.038 C 
BRANCH  49  50
ATOM     50  CBO 49X A 306     -12.437  -3.565   5.925  1.00 75.84    -0.058 A 
ATOM     51  CBR 49X A 306     -11.477  -4.536   6.259  1.00 77.45     0.007 A 
ATOM     52  CBS 49X A 306     -10.642  -4.376   7.374  1.00 75.50     0.001 A 
ATOM     53  CBT 49X A 306     -10.758  -3.234   8.160  1.00 74.02     0.000 A 
ATOM     54  CBU 49X A 306     -11.708  -2.264   7.834  1.00 75.63     0.001 A 
ATOM     55  CBV 49X A 306     -12.543  -2.426   6.727  1.00 77.20     0.007 A 
ENDBRANCH  49  50
ENDBRANCH  48  49
ENDBRANCH  47  48
ENDBRANCH  46  47
ENDBRANCH  45  46
ENDBRANCH  44  45
ENDBRANCH  43  44
ENDBRANCH  40  43
ENDBRANCH   1  39
TORSDOF 33
ENDMDL
MODEL 3
REMARK VINA RESULT:      -8.0      2.908      5.470
REMARK WARNING: 32 MAX_TORS EXCEEDED!!!
REMARK  33 active torsions:
REMARK  status: ('A' for Active; 'I' for Inactive)
REMARK    1  A    between atoms: C1_1  and  CAH_24 
REMARK    2  A    between atoms: CBA_3  and  CAZ_4 
REMARK    3  A    between atoms: CAZ_4  and  CAY_5 
REMARK    4  A    between atoms: CAY_5  and  CAX_6 
REMARK    5  A    between atoms: CAX_6  and  CAW_7 
REMARK    6  A    between atoms: CAW_7  and  CAV_8 
REMARK    7  A    between atoms: CAV_8  and  CAU_9 
REMARK    8  A    between atoms: CAU_9  and  CAT_10 
REMARK    9  A    between atoms: CAT_10  and  CAS_11 
REMARK   10  A    between atoms: CAS_11  and  CAR_12 
REMARK   11  A    between atoms: CAR_12  and  CAQ_13 
REMARK   12  A    between atoms: CAQ_13  and  CAP_14 
REMARK   13  A    between atoms: CAP_14  and  CAO_15 
REMARK   14  A    between atoms: CAO_15  and  CAN_16 
REMARK   15  A    between atoms: CAN_16  and  CAM_19 
REMARK   16  A    between atoms: CAN_16  and  OBN_17 
REMARK   17  A    between atoms: CAM_19  and  OBL_20 
REMARK   18  A    between atoms: CAM_19  and  CAL_22 
REMARK   19  A    between atoms: CAL_22  and  CAK_23 
REMARK   20  A    between atoms: CAL_22  and  NBC_39 
REMARK   21  A    between atoms: CG_26  and  CG5_27 
REMARK   22  A    between atoms: CG5_27  and  OG6_28 
REMARK   23  A    between atoms: CG4_30  and  OG5_31 
REMARK   24  A    between atoms: CG3_33  and  OG4_34 
REMARK   25  A    between atoms: CG2_36  and  OG3_37 
REMARK       I    between atoms: NBC_39  and  CBD_41 
REMARK   26  A    between atoms: CBD_41  and  CBE_43 
REMARK   27  A    between atoms: CBE_43  and  CBF_44 
REMARK   28  A    between atoms: CBF_44  and  CBG_45 
REMARK   29  A    between atoms: CBG_45  and  CBH_46 
REMARK   30  A    between atoms: CBH_46  and  CBI_47 
REMARK   31  A    between atoms: CBI_47  and  CBJ_48 
REMARK   32  A    between atoms: CBJ_48  and  CBK_49 
REMARK   33  A    between atoms: CBK_49  and  CBO_50 
ROOT
ATOM      1  CAL 49X A 306     -15.648 -10.105   6.724  1.00 62.39     0.138 C 
ENDROOT
BRANCH   1   2
ATOM      2  CAM 49X A 306     -17.110 -10.354   7.181  1.00 59.99     0.173 C 
BRANCH   2   3
ATOM      3  CAN 49X A 306     -17.627 -11.745   6.955  1.00 59.47     0.149 C 
BRANCH   3   4
ATOM      4  OBN 49X A 306     -16.857 -12.301   5.886  1.00 60.35    -0.393 OA
ATOM      5  HBN 49X A 306     -17.251 -11.994   5.078  1.00  0.00     0.210 HD
ENDBRANCH   3   4
BRANCH   3   6
ATOM      6  CAO 49X A 306     -19.129 -11.842   6.696  1.00 59.79     0.034 C 
BRANCH   6   7
ATOM      7  CAP 49X A 306     -19.332 -13.095   5.849  1.00 64.31     0.002 C 
BRANCH   7   8
ATOM      8  CAQ 49X A 306     -20.818 -13.378   5.625  1.00 70.99     0.000 C 
BRANCH   8   9
ATOM      9  CAR 49X A 306     -21.184 -14.792   6.100  1.00 68.44     0.000 C 
BRANCH   9  10
ATOM     10  CAS 49X A 306     -20.397 -15.207   7.360  1.00 67.12     0.000 C 
BRANCH  10  11
ATOM     11  CAT 49X A 306     -21.271 -15.247   8.632  1.00 57.87     0.000 C 
BRANCH  11  12
ATOM     12  CAU 49X A 306     -20.436 -15.028   9.897  1.00 52.32     0.000 C 
BRANCH  12  13
ATOM     13  CAV 49X A 306     -19.106 -14.367   9.585  1.00 49.84     0.000 C 
BRANCH  13  14
ATOM     14  CAW 49X A 306     -19.075 -12.954  10.134  1.00 48.09     0.000 C 
BRANCH  14  15
ATOM     15  CAX 49X A 306     -18.222 -12.923  11.398  1.00 51.12     0.000 C 
BRANCH  15  16
ATOM     16  CAY 49X A 306     -19.061 -12.561  12.621  1.00 50.82     0.000 C 
BRANCH  16  17
ATOM     17  CAZ 49X A 306     -19.342 -11.055  12.644  1.00 52.17    -0.000 C 
BRANCH  17  18
ATOM     18  CBA 49X A 306     -18.058 -10.248  12.393  1.00 50.92    -0.005 C 
ATOM     19  CBB 49X A 306     -17.344  -9.896  13.715  1.00 47.98     0.005 C 
ENDBRANCH  17  18
ENDBRANCH  16  17
ENDBRANCH  15  16
ENDBRANCH  14  15
ENDBRANCH  13  14
ENDBRANCH  12  13
ENDBRANCH  11  12
ENDBRANCH  10  11
ENDBRANCH   9  10
ENDBRANCH   8   9
ENDBRANCH   7   8
ENDBRANCH   6   7
ENDBRANCH   3   6
ENDBRANCH   2   3
BRANCH   2  20
ATOM     20  OBL 49X A 306     -17.176 -10.285   8.587  1.00 62.78    -0.391 OA
ATOM     21  HBL 49X A 306     -16.350  -9.855   8.776  1.00  0.00     0.210 HD
ENDBRANCH   2  20
ENDBRANCH   1   2
BRANCH   1  22
ATOM     22  CAK 49X A 306     -14.637 -10.395   7.866  1.00 65.93    -0.001 C 
ATOM     23  CAH 49X A 306     -14.048 -11.663   7.983  1.00 63.76     0.005 C 
BRANCH  23  24
ATOM     24  C1  49X A 306     -13.058 -12.016   8.923  1.00 58.39     0.176 C 
ATOM     25  OG  49X A 306     -13.459 -12.844  10.051  1.00 55.42    -0.369 OA
ATOM     26  CG  49X A 306     -14.159 -14.010   9.517  1.00 52.88     0.177 C 
ATOM     27  CG4 49X A 306     -13.185 -14.907   8.694  1.00 51.93     0.180 C 
ATOM     28  CG3 49X A 306     -12.440 -14.105   7.616  1.00 52.27     0.181 C 
ATOM     29  CG2 49X A 306     -11.922 -12.759   8.177  1.00 54.21     0.182 C 
BRANCH  26  30
ATOM     30  CG5 49X A 306     -15.001 -14.706  10.583  1.00 49.26     0.198 C 
BRANCH  30  31
ATOM     31  OG6 49X A 306     -15.756 -15.668   9.890  1.00 49.47    -0.398 OA
ATOM     32  HG6 49X A 306     -15.145 -16.367   9.690  1.00  0.00     0.209 HD
ENDBRANCH  30  31
ENDBRANCH  26  30
BRANCH  27  33
ATOM     33  OG5 49X A 306     -12.250 -15.569   9.548  1.00 46.63    -0.390 OA
ATOM     34  HG5 49X A 306     -11.605 -16.049   9.042  1.00  0.00     0.210 HD
ENDBRANCH  27  33
BRANCH  28  35
ATOM     35  OG4 49X A 306     -11.386 -14.932   7.117  1.00 55.09    -0.390 OA
ATOM     36  HG4 49X A 306     -11.543 -15.066   6.190  1.00  0.00     0.210 HD
ENDBRANCH  28  35
BRANCH  29  37
ATOM     37  OG3 49X A 306     -11.369 -11.893   7.166  1.00 49.35    -0.390 OA
ATOM     38  HG3 49X A 306     -11.304 -11.009   7.509  1.00  0.00     0.210 HD
ENDBRANCH  29  37
ENDBRANCH  23  24
ENDBRANCH   1  22
BRANCH   1  39
ATOM     39  NBC 49X A 306     -15.511  -8.724   6.238  1.00 61.32    -0.351 N 
ATOM     40  CBD 49X A 306     -14.338  -8.219   5.858  1.00 63.21     0.218 C 
ATOM     41  OBM 49X A 306     -13.256  -8.816   5.936  1.00 71.44    -0.274 OA
ATOM     42  HBC 49X A 306     -16.341  -8.133   6.189  1.00  0.00     0.163 HD
BRANCH  40  43
ATOM     43  CBE 49X A 306     -14.409  -6.791   5.331  1.00 56.66     0.103 C 
BRANCH  43  44
ATOM     44  CBF 49X A 306     -15.630  -6.618   4.443  1.00 57.14     0.009 C 
BRANCH  44  45
ATOM     45  CBG 49X A 306     -16.483  -5.433   4.926  1.00 57.97     0.000 C 
BRANCH  45  46
ATOM     46  CBH 49X A 306     -15.632  -4.370   5.634  1.00 56.96     0.000 C 
BRANCH  46  47
ATOM     47  CBI 49X A 306     -15.589  -3.056   4.851  1.00 57.63     0.000 C 
BRANCH  47  48
ATOM     48  CBJ 49X A 306     -14.201  -2.434   4.918  1.00 60.39     0.005 C 
BRANCH  48  49
ATOM     49  CBK 49X A 306     -13.095  -3.487   4.845  1.00 65.37     0.038 C 
BRANCH  49  50
ATOM     50  CBO 49X A 306     -12.197  -3.477   6.106  1.00 75.84    -0.058 A 
ATOM     51  CBR 49X A 306     -11.329  -4.542   6.403  1.00 77.45     0.007 A 
ATOM     52  CBS 49X A 306     -10.528  -4.525   7.553  1.00 75.50     0.001 A 
ATOM     53  CBT 49X A 306     -10.585  -3.433   8.413  1.00 74.02     0.000 A 
ATOM     54  CBU 49X A 306     -11.442  -2.371   8.125  1.00 75.63     0.001 A 
ATOM     55  CBV 49X A 306     -12.244  -2.390   6.982  1.00 77.20     0.007 A 
ENDBRANCH  49  50
ENDBRANCH  48  49
ENDBRANCH  47  48
ENDBRANCH  46  47
ENDBRANCH  45  46
ENDBRANCH  44  45
ENDBRANCH  43  44
ENDBRANCH  40  43
ENDBRANCH   1  39
TORSDOF 33
ENDMDL
MODEL 4
REMARK VINA RESULT:      -7.9      1.532      2.127
REMARK WARNING: 32 MAX_TORS EXCEEDED!!!
REMARK  33 active torsions:
REMARK  status: ('A' for Active; 'I' for Inactive)
REMARK    1  A    between atoms: C1_1  and  CAH_24 
REMARK    2  A    between atoms: CBA_3  and  CAZ_4 
REMARK    3  A    between atoms: CAZ_4  and  CAY_5 
REMARK    4  A    between atoms: CAY_5  and  CAX_6 
REMARK    5  A    between atoms: CAX_6  and  CAW_7 
REMARK    6  A    between atoms: CAW_7  and  CAV_8 
REMARK    7  A    between atoms: CAV_8  and  CAU_9 
REMARK    8  A    between atoms: CAU_9  and  CAT_10 
REMARK    9  A    between atoms: CAT_10  and  CAS_11 
REMARK   10  A    between atoms: CAS_11  and  CAR_12 
REMARK   11  A    between atoms: CAR_12  and  CAQ_13 
REMARK   12  A    between atoms: CAQ_13  and  CAP_14 
REMARK   13  A    between atoms: CAP_14  and  CAO_15 
REMARK   14  A    between atoms: CAO_15  and  CAN_16 
REMARK   15  A    between atoms: CAN_16  and  CAM_19 
REMARK   16  A    between atoms: CAN_16  and  OBN_17 
REMARK   17  A    between atoms: CAM_19  and  OBL_20 
REMARK   18  A    between atoms: CAM_19  and  CAL_22 
REMARK   19  A    between atoms: CAL_22  and  CAK_23 
REMARK   20  A    between atoms: CAL_22  and  NBC_39 
REMARK   21  A    between atoms: CG_26  and  CG5_27 
REMARK   22  A    between atoms: CG5_27  and  OG6_28 
REMARK   23  A    between atoms: CG4_30  and  OG5_31 
REMARK   24  A    between atoms: CG3_33  and  OG4_34 
REMARK   25  A    between atoms: CG2_36  and  OG3_37 
REMARK       I    between atoms: NBC_39  and  CBD_41 
REMARK   26  A    between atoms: CBD_41  and  CBE_43 
REMARK   27  A    between atoms: CBE_43  and  CBF_44 
REMARK   28  A    between atoms: CBF_44  and  CBG_45 
REMARK   29  A    between atoms: CBG_45  and  CBH_46 
REMARK   30  A    between atoms: CBH_46  and  CBI_47 
REMARK   31  A    between atoms: CBI_47  and  CBJ_48 
REMARK   32  A    between atoms: CBJ_48  and  CBK_49 
REMARK   33  A    between atoms: CBK_49  and  CBO_50 
ROOT
ATOM      1  CAL 49X A 306     -15.866 -11.240   8.016  1.00 62.39     0.138 C 
ENDROOT
BRANCH   1   2
ATOM      2  CAM 49X A 306     -17.201 -11.046   8.784  1.00 59.99     0.173 C 
BRANCH   2   3
ATOM      3  CAN 49X A 306     -18.309 -11.979   8.394  1.00 59.47     0.149 C 
BRANCH   3   4
ATOM      4  OBN 49X A 306     -17.883 -13.297   8.753  1.00 60.35    -0.393 OA
ATOM      5  HBN 49X A 306     -18.501 -13.617   9.400  1.00  0.00     0.210 HD
ENDBRANCH   3   4
BRANCH   3   6
ATOM      6  CAO 49X A 306     -18.745 -11.893   6.932  1.00 59.79     0.034 C 
BRANCH   6   7
ATOM      7  CAP 49X A 306     -19.130 -13.310   6.520  1.00 64.31     0.002 C 
BRANCH   7   8
ATOM      8  CAQ 49X A 306     -20.320 -13.305   5.560  1.00 70.99     0.000 C 
BRANCH   8   9
ATOM      9  CAR 49X A 306     -21.247 -14.498   5.828  1.00 68.44     0.000 C 
BRANCH   9  10
ATOM     10  CAS 49X A 306     -22.651 -14.297   5.219  1.00 67.12     0.000 C 
BRANCH  10  11
ATOM     11  CAT 49X A 306     -23.022 -12.810   5.039  1.00 57.87     0.000 C 
BRANCH  11  12
ATOM     12  CAU 49X A 306     -24.470 -12.643   4.567  1.00 52.32     0.000 C 
BRANCH  12  13
ATOM     13  CAV 49X A 306     -24.598 -12.844   3.069  1.00 49.84     0.000 C 
BRANCH  13  14
ATOM     14  CAW 49X A 306     -23.414 -12.227   2.348  1.00 48.09     0.000 C 
BRANCH  14  15
ATOM     15  CAX 49X A 306     -23.755 -12.060   0.871  1.00 51.12     0.000 C 
BRANCH  15  16
ATOM     16  CAY 49X A 306     -24.261 -10.650   0.578  1.00 50.82     0.000 C 
BRANCH  16  17
ATOM     17  CAZ 49X A 306     -23.216  -9.613   1.005  1.00 52.17    -0.000 C 
BRANCH  17  18
ATOM     18  CBA 49X A 306     -23.794  -8.645   2.051  1.00 50.92    -0.005 C 
ATOM     19  CBB 49X A 306     -23.782  -7.188   1.541  1.00 47.98     0.005 C 
ENDBRANCH  17  18
ENDBRANCH  16  17
ENDBRANCH  15  16
ENDBRANCH  14  15
ENDBRANCH  13  14
ENDBRANCH  12  13
ENDBRANCH  11  12
ENDBRANCH  10  11
ENDBRANCH   9  10
ENDBRANCH   8   9
ENDBRANCH   7   8
ENDBRANCH   6   7
ENDBRANCH   3   6
ENDBRANCH   2   3
BRANCH   2  20
ATOM     20  OBL 49X A 306     -17.020 -11.417  10.131  1.00 62.78    -0.391 OA
ATOM     21  HBL 49X A 306     -17.132 -10.575  10.557  1.00  0.00     0.210 HD
ENDBRANCH   2  20
ENDBRANCH   1   2
BRANCH   1  22
ATOM     22  CAK 49X A 306     -14.750 -11.792   8.943  1.00 65.93    -0.001 C 
ATOM     23  CAH 49X A 306     -14.176 -13.046   8.688  1.00 63.76     0.005 C 
BRANCH  23  24
ATOM     24  C1  49X A 306     -13.103 -13.611   9.407  1.00 58.39     0.176 C 
ATOM     25  OG  49X A 306     -13.343 -14.862  10.112  1.00 55.42    -0.369 OA
ATOM     26  CG  49X A 306     -13.928 -15.802   9.158  1.00 52.88     0.177 C 
ATOM     27  CG4 49X A 306     -12.899 -16.166   8.044  1.00 51.93     0.180 C 
ATOM     28  CG3 49X A 306     -12.313 -14.914   7.374  1.00 52.27     0.181 C 
ATOM     29  CG2 49X A 306     -11.929 -13.845   8.426  1.00 54.21     0.182 C 
BRANCH  26  30
ATOM     30  CG5 49X A 306     -14.624 -16.965   9.860  1.00 49.26     0.198 C 
BRANCH  30  31
ATOM     31  OG6 49X A 306     -14.784 -17.951   8.873  1.00 49.47    -0.398 OA
ATOM     32  HG6 49X A 306     -14.846 -17.477   8.052  1.00  0.00     0.209 HD
ENDBRANCH  30  31
ENDBRANCH  26  30
BRANCH  27  33
ATOM     33  OG5 49X A 306     -11.850 -16.985   8.562  1.00 46.63    -0.390 OA
ATOM     34  HG5 49X A 306     -10.999 -16.674   8.272  1.00  0.00     0.210 HD
ENDBRANCH  27  33
BRANCH  28  35
ATOM     35  OG4 49X A 306     -11.197 -15.332   6.586  1.00 55.09    -0.390 OA
ATOM     36  HG4 49X A 306     -10.893 -16.161   6.937  1.00  0.00     0.210 HD
ENDBRANCH  28  35
BRANCH  29  37
ATOM     37  OG3 49X A 306     -11.536 -12.585   7.843  1.00 49.35    -0.390 OA
ATOM     38  HG3 49X A 306     -12.312 -12.108   7.574  1.00  0.00     0.210 HD
ENDBRANCH  29  37
ENDBRANCH  23  24
ENDBRANCH   1  22
BRANCH   1  39
ATOM     39  NBC 49X A 306     -15.460  -9.966   7.403  1.00 61.32    -0.351 N 
ATOM     40  CBD 49X A 306     -14.405  -9.873   6.594  1.00 63.21     0.218 C 
ATOM     41  OBM 49X A 306     -13.634 -10.807   6.332  1.00 71.44    -0.274 OA
ATOM     42  HBC 49X A 306     -16.002  -9.126   7.604  1.00  0.00     0.163 HD
BRANCH  40  43
ATOM     43  CBE 49X A 306     -14.179  -8.484   6.013  1.00 56.66     0.103 C 
BRANCH  43  44
ATOM     44  CBF 49X A 306     -15.508  -7.777   5.805  1.00 57.14     0.009 C 
BRANCH  44  45
ATOM     45  CBG 49X A 306     -15.486  -6.963   4.500  1.00 57.97     0.000 C 
BRANCH  45  46
ATOM     46  CBH 49X A 306     -14.096  -6.968   3.848  1.00 56.96     0.000 C 
BRANCH  46  47
ATOM     47  CBI 49X A 306     -13.549  -5.553   3.654  1.00 57.63     0.000 C 
BRANCH  47  48
ATOM     48  CBJ 49X A 306     -14.063  -4.622   4.744  1.00 60.39     0.005 C 
BRANCH  48  49
ATOM     49  CBK 49X A 306     -13.219  -3.353   4.862  1.00 65.37     0.038 C 
BRANCH  49  50
ATOM     50  CBO 49X A 306     -12.302  -3.376   6.108  1.00 75.84    -0.058 A 
ATOM     51  CBR 49X A 306     -12.271  -2.310   7.023  1.00 77.45     0.007 A 
ATOM     52  CBS 49X A 306     -11.429  -2.340   8.143  1.00 75.50     0.001 A 
ATOM     53  CBT 49X A 306     -10.615  -3.447   8.360  1.00 74.02     0.000 A 
ATOM     54  CBU 49X A 306     -10.640  -4.511   7.458  1.00 75.63     0.001 A 
ATOM     55  CBV 49X A 306     -11.475  -4.479   6.339  1.00 77.20     0.007 A 
ENDBRANCH  49  50
ENDBRANCH  48  49
ENDBRANCH  47  48
ENDBRANCH  46  47
ENDBRANCH  45  46
ENDBRANCH  44  45
ENDBRANCH  43  44
ENDBRANCH  40  43
ENDBRANCH   1  39
TORSDOF 33
ENDMDL
MODEL 5
REMARK VINA RESULT:      -7.9      2.397      3.799
REMARK WARNING: 32 MAX_TORS EXCEEDED!!!
REMARK  33 active torsions:
REMARK  status: ('A' for Active; 'I' for Inactive)
REMARK    1  A    between atoms: C1_1  and  CAH_24 
REMARK    2  A    between atoms: CBA_3  and  CAZ_4 
REMARK    3  A    between atoms: CAZ_4  and  CAY_5 
REMARK    4  A    between atoms: CAY_5  and  CAX_6 
REMARK    5  A    between atoms: CAX_6  and  CAW_7 
REMARK    6  A    between atoms: CAW_7  and  CAV_8 
REMARK    7  A    between atoms: CAV_8  and  CAU_9 
REMARK    8  A    between atoms: CAU_9  and  CAT_10 
REMARK    9  A    between atoms: CAT_10  and  CAS_11 
REMARK   10  A    between atoms: CAS_11  and  CAR_12 
REMARK   11  A    between atoms: CAR_12  and  CAQ_13 
REMARK   12  A    between atoms: CAQ_13  and  CAP_14 
REMARK   13  A    between atoms: CAP_14  and  CAO_15 
REMARK   14  A    between atoms: CAO_15  and  CAN_16 
REMARK   15  A    between atoms: CAN_16  and  CAM_19 
REMARK   16  A    between atoms: CAN_16  and  OBN_17 
REMARK   17  A    between atoms: CAM_19  and  OBL_20 
REMARK   18  A    between atoms: CAM_19  and  CAL_22 
REMARK   19  A    between atoms: CAL_22  and  CAK_23 
REMARK   20  A    between atoms: CAL_22  and  NBC_39 
REMARK   21  A    between atoms: CG_26  and  CG5_27 
REMARK   22  A    between atoms: CG5_27  and  OG6_28 
REMARK   23  A    between atoms: CG4_30  and  OG5_31 
REMARK   24  A    between atoms: CG3_33  and  OG4_34 
REMARK   25  A    between atoms: CG2_36  and  OG3_37 
REMARK       I    between atoms: NBC_39  and  CBD_41 
REMARK   26  A    between atoms: CBD_41  and  CBE_43 
REMARK   27  A    between atoms: CBE_43  and  CBF_44 
REMARK   28  A    between atoms: CBF_44  and  CBG_45 
REMARK   29  A    between atoms: CBG_45  and  CBH_46 
REMARK   30  A    between atoms: CBH_46  and  CBI_47 
REMARK   31  A    between atoms: CBI_47  and  CBJ_48 
REMARK   32  A    between atoms: CBJ_48  and  CBK_49 
REMARK   33  A    between atoms: CBK_49  and  CBO_50 
ROOT
ATOM      1  CAL 49X A 306     -15.963 -10.963   7.558  1.00 62.39     0.138 C 
ENDROOT
BRANCH   1   2
ATOM      2  CAM 49X A 306     -17.343 -11.176   8.235  1.00 59.99     0.173 C 
BRANCH   2   3
ATOM      3  CAN 49X A 306     -18.079 -12.417   7.822  1.00 59.47     0.149 C 
BRANCH   3   4
ATOM      4  OBN 49X A 306     -17.378 -13.522   8.400  1.00 60.35    -0.393 OA
ATOM      5  HBN 49X A 306     -17.975 -14.260   8.389  1.00  0.00     0.210 HD
ENDBRANCH   3   4
BRANCH   3   6
ATOM      6  CAO 49X A 306     -18.275 -12.583   6.316  1.00 59.79     0.034 C 
BRANCH   6   7
ATOM      7  CAP 49X A 306     -19.770 -12.798   6.105  1.00 64.31     0.002 C 
BRANCH   7   8
ATOM      8  CAQ 49X A 306     -20.175 -14.236   6.432  1.00 70.99     0.000 C 
BRANCH   8   9
ATOM      9  CAR 49X A 306     -21.471 -14.620   5.705  1.00 68.44     0.000 C 
BRANCH   9  10
ATOM     10  CAS 49X A 306     -22.054 -13.447   4.890  1.00 67.12     0.000 C 
BRANCH  10  11
ATOM     11  CAT 49X A 306     -23.556 -13.615   4.578  1.00 57.87     0.000 C 
BRANCH  11  12
ATOM     12  CAU 49X A 306     -24.384 -12.462   5.152  1.00 52.32     0.000 C 
BRANCH  12  13
ATOM     13  CAV 49X A 306     -23.512 -11.444   5.864  1.00 49.84     0.000 C 
BRANCH  13  14
ATOM     14  CAW 49X A 306     -24.159 -11.011   7.166  1.00 48.09     0.000 C 
BRANCH  14  15
ATOM     15  CAX 49X A 306     -24.142 -12.176   8.149  1.00 51.12     0.000 C 
BRANCH  15  16
ATOM     16  CAY 49X A 306     -22.712 -12.583   8.497  1.00 50.82     0.000 C 
BRANCH  16  17
ATOM     17  CAZ 49X A 306     -22.080 -11.550   9.437  1.00 52.17    -0.000 C 
BRANCH  17  18
ATOM     18  CBA 49X A 306     -20.853 -12.133  10.155  1.00 50.92    -0.005 C 
ATOM     19  CBB 49X A 306     -20.825 -13.673  10.066  1.00 47.98     0.005 C 
ENDBRANCH  17  18
ENDBRANCH  16  17
ENDBRANCH  15  16
ENDBRANCH  14  15
ENDBRANCH  13  14
ENDBRANCH  12  13
ENDBRANCH  11  12
ENDBRANCH  10  11
ENDBRANCH   9  10
ENDBRANCH   8   9
ENDBRANCH   7   8
ENDBRANCH   6   7
ENDBRANCH   3   6
ENDBRANCH   2   3
BRANCH   2  20
ATOM     20  OBL 49X A 306     -17.154 -11.439   9.606  1.00 62.78    -0.391 OA
ATOM     21  HBL 49X A 306     -16.740 -10.629   9.880  1.00  0.00     0.210 HD
ENDBRANCH   2  20
ENDBRANCH   1   2
BRANCH   1  22
ATOM     22  CAK 49X A 306     -14.798 -11.362   8.503  1.00 65.93    -0.001 C 
ATOM     23  CAH 49X A 306     -14.135 -12.586   8.329  1.00 63.76     0.005 C 
BRANCH  23  24
ATOM     24  C1  49X A 306     -13.013 -13.016   9.068  1.00 58.39     0.176 C 
ATOM     25  OG  49X A 306     -13.190 -14.143   9.972  1.00 55.42    -0.369 OA
ATOM     26  CG  49X A 306     -13.803 -15.230   9.210  1.00 52.88     0.177 C 
ATOM     27  CG4 49X A 306     -12.826 -15.751   8.112  1.00 51.93     0.180 C 
ATOM     28  CG3 49X A 306     -12.303 -14.612   7.224  1.00 52.27     0.181 C 
ATOM     29  CG2 49X A 306     -11.887 -13.386   8.072  1.00 54.21     0.182 C 
BRANCH  26  30
ATOM     30  CG5 49X A 306     -14.436 -16.277  10.123  1.00 49.26     0.198 C 
BRANCH  30  31
ATOM     31  OG6 49X A 306     -15.405 -16.918   9.333  1.00 49.47    -0.398 OA
ATOM     32  HG6 49X A 306     -15.154 -16.740   8.435  1.00  0.00     0.209 HD
ENDBRANCH  30  31
ENDBRANCH  26  30
BRANCH  27  33
ATOM     33  OG5 49X A 306     -11.733 -16.464   8.693  1.00 46.63    -0.390 OA
ATOM     34  HG5 49X A 306     -11.930 -16.723   9.586  1.00  0.00     0.210 HD
ENDBRANCH  27  33
BRANCH  28  35
ATOM     35  OG4 49X A 306     -11.220 -15.134   6.450  1.00 55.09    -0.390 OA
ATOM     36  HG4 49X A 306     -10.412 -14.886   6.885  1.00  0.00     0.210 HD
ENDBRANCH  28  35
BRANCH  29  37
ATOM     37  OG3 49X A 306     -11.553 -12.229   7.278  1.00 49.35    -0.390 OA
ATOM     38  HG3 49X A 306     -11.955 -12.308   6.421  1.00  0.00     0.210 HD
ENDBRANCH  29  37
ENDBRANCH  23  24
ENDBRANCH   1  22
BRANCH   1  39
ATOM     39  NBC 49X A 306     -15.836  -9.563   7.127  1.00 61.32    -0.351 N 
ATOM     40  CBD 49X A 306     -14.781  -9.126   6.437  1.00 63.21     0.218 C 
ATOM     41  OBM 49X A 306     -13.792  -9.815   6.153  1.00 71.44    -0.274 OA
ATOM     42  HBC 49X A 306     -16.578  -8.904   7.362  1.00  0.00     0.163 HD
BRANCH  40  43
ATOM     43  CBE 49X A 306     -14.859  -7.660   6.033  1.00 56.66     0.103 C 
BRANCH  43  44
ATOM     44  CBF 49X A 306     -13.813  -7.350   4.974  1.00 57.14     0.009 C 
BRANCH  44  45
ATOM     45  CBG 49X A 306     -14.196  -6.080   4.195  1.00 57.97     0.000 C 
BRANCH  45  46
ATOM     46  CBH 49X A 306     -15.489  -5.451   4.732  1.00 56.96     0.000 C 
BRANCH  46  47
ATOM     47  CBI 49X A 306     -15.328  -3.954   5.003  1.00 57.63     0.000 C 
BRANCH  47  48
ATOM     48  CBJ 49X A 306     -13.906  -3.501   4.699  1.00 60.39     0.005 C 
BRANCH  48  49
ATOM     49  CBK 49X A 306     -13.387  -2.501   5.732  1.00 65.37     0.038 C 
BRANCH  49  50
ATOM     50  CBO 49X A 306     -12.271  -3.105   6.619  1.00 75.84    -0.058 A 
ATOM     51  CBR 49X A 306     -11.810  -2.451   7.774  1.00 77.45     0.007 A 
ATOM     52  CBS 49X A 306     -10.792  -3.005   8.563  1.00 75.50     0.001 A 
ATOM     53  CBT 49X A 306     -10.232  -4.226   8.202  1.00 74.02     0.000 A 
ATOM     54  CBU 49X A 306     -10.684  -4.883   7.057  1.00 75.63     0.001 A 
ATOM     55  CBV 49X A 306     -11.695  -4.329   6.269  1.00 77.20     0.007 A 
ENDBRANCH  49  50
ENDBRANCH  48  49
ENDBRANCH  47  48
ENDBRANCH  46  47
ENDBRANCH  45  46
ENDBRANCH  44  45
ENDBRANCH  43  44
ENDBRANCH  40  43
ENDBRANCH   1  39
TORSDOF 33
ENDMDL
MODEL 6
REMARK VINA RESULT:      -7.9      2.694      4.113
REMARK WARNING: 32 MAX_TORS EXCEEDED!!!
REMARK  33 active torsions:
REMARK  status: ('A' for Active; 'I' for Inactive)
REMARK    1  A    between atoms: C1_1  and  CAH_24 
REMARK    2  A    between atoms: CBA_3  and  CAZ_4 
REMARK    3  A    between atoms: CAZ_4  and  CAY_5 
REMARK    4  A    between atoms: CAY_5  and  CAX_6 
REMARK    5  A    between atoms: CAX_6  and  CAW_7 
REMARK    6  A    between atoms: CAW_7  and  CAV_8 
REMARK    7  A    between atoms: CAV_8  and  CAU_9 
REMARK    8  A    between atoms: CAU_9  and  CAT_10 
REMARK    9  A    between atoms: CAT_10  and  CAS_11 
REMARK   10  A    between atoms: CAS_11  and  CAR_12 
REMARK   11  A    between atoms: CAR_12  and  CAQ_13 
REMARK   12  A    between atoms: CAQ_13  and  CAP_14 
REMARK   13  A    between atoms: CAP_14  and  CAO_15 
REMARK   14  A    between atoms: CAO_15  and  CAN_16 
REMARK   15  A    between atoms: CAN_16  and  CAM_19 
REMARK   16  A    between atoms: CAN_16  and  OBN_17 
REMARK   17  A    between atoms: CAM_19  and  OBL_20 
REMARK   18  A    between atoms: CAM_19  and  CAL_22 
REMARK   19  A    between atoms: CAL_22  and  CAK_23 
REMARK   20  A    between atoms: CAL_22  and  NBC_39 
REMARK   21  A    between atoms: CG_26  and  CG5_27 
REMARK   22  A    between atoms: CG5_27  and  OG6_28 
REMARK   23  A    between atoms: CG4_30  and  OG5_31 
REMARK   24  A    between atoms: CG3_33  and  OG4_34 
REMARK   25  A    between atoms: CG2_36  and  OG3_37 
REMARK       I    between atoms: NBC_39  and  CBD_41 
REMARK   26  A    between atoms: CBD_41  and  CBE_43 
REMARK   27  A    between atoms: CBE_43  and  CBF_44 
REMARK   28  A    between atoms: CBF_44  and  CBG_45 
REMARK   29  A    between atoms: CBG_45  and  CBH_46 
REMARK   30  A    between atoms: CBH_46  and  CBI_47 
REMARK   31  A    between atoms: CBI_47  and  CBJ_48 
REMARK   32  A    between atoms: CBJ_48  and  CBK_49 
REMARK   33  A    between atoms: CBK_49  and  CBO_50 
ROOT
ATOM      1  CAL 49X A 306     -16.095 -11.402   7.702  1.00 62.39     0.138 C 
ENDROOT
BRANCH   1   2
ATOM      2  CAM 49X A 306     -17.411 -11.598   8.501  1.00 59.99     0.173 C 
BRANCH   2   3
ATOM      3  CAN 49X A 306     -18.326 -12.669   7.983  1.00 59.47     0.149 C 
BRANCH   3   4
ATOM      4  OBN 49X A 306     -17.699 -13.922   8.276  1.00 60.35    -0.393 OA
ATOM      5  HBN 49X A 306     -17.169 -14.146   7.520  1.00  0.00     0.210 HD
ENDBRANCH   3   4
BRANCH   3   6
ATOM      6  CAO 49X A 306     -18.700 -12.543   6.508  1.00 59.79     0.034 C 
BRANCH   6   7
ATOM      7  CAP 49X A 306     -20.224 -12.580   6.453  1.00 64.31     0.002 C 
BRANCH   7   8
ATOM      8  CAQ 49X A 306     -20.722 -13.780   5.646  1.00 70.99     0.000 C 
BRANCH   8   9
ATOM      9  CAR 49X A 306     -21.997 -13.428   4.868  1.00 68.44     0.000 C 
BRANCH   9  10
ATOM     10  CAS 49X A 306     -23.209 -13.215   5.798  1.00 67.12     0.000 C 
BRANCH  10  11
ATOM     11  CAT 49X A 306     -23.727 -14.526   6.424  1.00 57.87     0.000 C 
BRANCH  11  12
ATOM     12  CAU 49X A 306     -24.047 -14.354   7.912  1.00 52.32     0.000 C 
BRANCH  12  13
ATOM     13  CAV 49X A 306     -23.181 -15.250   8.779  1.00 49.84     0.000 C 
BRANCH  13  14
ATOM     14  CAW 49X A 306     -21.867 -14.565   9.102  1.00 48.09     0.000 C 
BRANCH  14  15
ATOM     15  CAX 49X A 306     -20.726 -15.564   8.943  1.00 51.12     0.000 C 
BRANCH  15  16
ATOM     16  CAY 49X A 306     -21.227 -16.888   8.372  1.00 50.82     0.000 C 
BRANCH  16  17
ATOM     17  CAZ 49X A 306     -20.472 -17.227   7.081  1.00 52.17    -0.000 C 
BRANCH  17  18
ATOM     18  CBA 49X A 306     -21.442 -17.377   5.898  1.00 50.92    -0.005 C 
ATOM     19  CBB 49X A 306     -22.727 -18.125   6.311  1.00 47.98     0.005 C 
ENDBRANCH  17  18
ENDBRANCH  16  17
ENDBRANCH  15  16
ENDBRANCH  14  15
ENDBRANCH  13  14
ENDBRANCH  12  13
ENDBRANCH  11  12
ENDBRANCH  10  11
ENDBRANCH   9  10
ENDBRANCH   8   9
ENDBRANCH   7   8
ENDBRANCH   6   7
ENDBRANCH   3   6
ENDBRANCH   2   3
BRANCH   2  20
ATOM     20  OBL 49X A 306     -17.109 -12.119   9.776  1.00 62.78    -0.391 OA
ATOM     21  HBL 49X A 306     -17.749 -12.818   9.831  1.00  0.00     0.210 HD
ENDBRANCH   2  20
ENDBRANCH   1   2
BRANCH   1  22
ATOM     22  CAK 49X A 306     -14.851 -11.761   8.558  1.00 65.93    -0.001 C 
ATOM     23  CAH 49X A 306     -14.206 -12.994   8.384  1.00 63.76     0.005 C 
BRANCH  23  24
ATOM     24  C1  49X A 306     -13.023 -13.394   9.040  1.00 58.39     0.176 C 
ATOM     25  OG  49X A 306     -13.088 -14.567   9.899  1.00 55.42    -0.369 OA
ATOM     26  CG  49X A 306     -13.685 -15.652   9.122  1.00 52.88     0.177 C 
ATOM     27  CG4 49X A 306     -12.746 -16.070   7.950  1.00 51.93     0.180 C 
ATOM     28  CG3 49X A 306     -12.335 -14.867   7.088  1.00 52.27     0.181 C 
ATOM     29  CG2 49X A 306     -11.937 -13.657   7.969  1.00 54.21     0.182 C 
BRANCH  26  30
ATOM     30  CG5 49X A 306     -14.209 -16.771  10.018  1.00 49.26     0.198 C 
BRANCH  30  31
ATOM     31  OG6 49X A 306     -13.088 -17.564  10.315  1.00 49.47    -0.398 OA
ATOM     32  HG6 49X A 306     -13.006 -18.165   9.584  1.00  0.00     0.209 HD
ENDBRANCH  30  31
ENDBRANCH  26  30
BRANCH  27  33
ATOM     33  OG5 49X A 306     -11.586 -16.746   8.437  1.00 46.63    -0.390 OA
ATOM     34  HG5 49X A 306     -11.460 -16.584   9.365  1.00  0.00     0.210 HD
ENDBRANCH  27  33
BRANCH  28  35
ATOM     35  OG4 49X A 306     -11.272 -15.294   6.233  1.00 55.09    -0.390 OA
ATOM     36  HG4 49X A 306     -11.453 -14.958   5.363  1.00  0.00     0.210 HD
ENDBRANCH  28  35
BRANCH  29  37
ATOM     37  OG3 49X A 306     -11.710 -12.450   7.213  1.00 49.35    -0.390 OA
ATOM     38  HG3 49X A 306     -11.069 -11.912   7.664  1.00  0.00     0.210 HD
ENDBRANCH  29  37
ENDBRANCH  23  24
ENDBRANCH   1  22
BRANCH   1  39
ATOM     39  NBC 49X A 306     -16.017 -10.017   7.213  1.00 61.32    -0.351 N 
ATOM     40  CBD 49X A 306     -14.962  -9.563   6.535  1.00 63.21     0.218 C 
ATOM     41  OBM 49X A 306     -13.935 -10.218   6.311  1.00 71.44    -0.274 OA
ATOM     42  HBC 49X A 306     -16.794  -9.384   7.397  1.00  0.00     0.163 HD
BRANCH  40  43
ATOM     43  CBE 49X A 306     -15.092  -8.121   6.064  1.00 56.66     0.103 C 
BRANCH  43  44
ATOM     44  CBF 49X A 306     -13.745  -7.597   5.594  1.00 57.14     0.009 C 
BRANCH  44  45
ATOM     45  CBG 49X A 306     -13.795  -7.249   4.097  1.00 57.97     0.000 C 
BRANCH  45  46
ATOM     46  CBH 49X A 306     -13.884  -5.735   3.867  1.00 56.96     0.000 C 
BRANCH  46  47
ATOM     47  CBI 49X A 306     -15.071  -5.112   4.602  1.00 57.63     0.000 C 
BRANCH  47  48
ATOM     48  CBJ 49X A 306     -14.665  -3.806   5.274  1.00 60.39     0.005 C 
BRANCH  48  49
ATOM     49  CBK 49X A 306     -13.244  -3.385   4.897  1.00 65.37     0.038 C 
BRANCH  49  50
ATOM     50  CBO 49X A 306     -12.292  -3.390   6.118  1.00 75.84    -0.058 A 
ATOM     51  CBR 49X A 306     -12.223  -2.303   7.006  1.00 77.45     0.007 A 
ATOM     52  CBS 49X A 306     -11.350  -2.317   8.102  1.00 75.50     0.001 A 
ATOM     53  CBT 49X A 306     -10.544  -3.428   8.323  1.00 74.02     0.000 A 
ATOM     54  CBU 49X A 306     -10.607  -4.513   7.448  1.00 75.63     0.001 A 
ATOM     55  CBV 49X A 306     -11.473  -4.497   6.353  1.00 77.20     0.007 A 
ENDBRANCH  49  50
ENDBRANCH  48  49
ENDBRANCH  47  48
ENDBRANCH  46  47
ENDBRANCH  45  46
ENDBRANCH  44  45
ENDBRANCH  43  44
ENDBRANCH  40  43
ENDBRANCH   1  39
TORSDOF 33
ENDMDL
MODEL 7
REMARK VINA RESULT:      -7.8      2.722      3.902
REMARK WARNING: 32 MAX_TORS EXCEEDED!!!
REMARK  33 active torsions:
REMARK  status: ('A' for Active; 'I' for Inactive)
REMARK    1  A    between atoms: C1_1  and  CAH_24 
REMARK    2  A    between atoms: CBA_3  and  CAZ_4 
REMARK    3  A    between atoms: CAZ_4  and  CAY_5 
REMARK    4  A    between atoms: CAY_5  and  CAX_6 
REMARK    5  A    between atoms: CAX_6  and  CAW_7 
REMARK    6  A    between atoms: CAW_7  and  CAV_8 
REMARK    7  A    between atoms: CAV_8  and  CAU_9 
REMARK    8  A    between atoms: CAU_9  and  CAT_10 
REMARK    9  A    between atoms: CAT_10  and  CAS_11 
REMARK   10  A    between atoms: CAS_11  and  CAR_12 
REMARK   11  A    between atoms: CAR_12  and  CAQ_13 
REMARK   12  A    between atoms: CAQ_13  and  CAP_14 
REMARK   13  A    between atoms: CAP_14  and  CAO_15 
REMARK   14  A    between atoms: CAO_15  and  CAN_16 
REMARK   15  A    between atoms: CAN_16  and  CAM_19 
REMARK   16  A    between atoms: CAN_16  and  OBN_17 
REMARK   17  A    between atoms: CAM_19  and  OBL_20 
REMARK   18  A    between atoms: CAM_19  and  CAL_22 
REMARK   19  A    between atoms: CAL_22  and  CAK_23 
REMARK   20  A    between atoms: CAL_22  and  NBC_39 
REMARK   21  A    between atoms: CG_26  and  CG5_27 
REMARK   22  A    between atoms: CG5_27  and  OG6_28 
REMARK   23  A    between atoms: CG4_30  and  OG5_31 
REMARK   24  A    between atoms: CG3_33  and  OG4_34 
REMARK   25  A    between atoms: CG2_36  and  OG3_37 
REMARK       I    between atoms: NBC_39  and  CBD_41 
REMARK   26  A    between atoms: CBD_41  and  CBE_43 
REMARK   27  A    between atoms: CBE_43  and  CBF_44 
REMARK   28  A    between atoms: CBF_44  and  CBG_45 
REMARK   29  A    between atoms: CBG_45  and  CBH_46 
REMARK   30  A    between atoms: CBH_46  and  CBI_47 
REMARK   31  A    between atoms: CBI_47  and  CBJ_48 
REMARK   32  A    between atoms: CBJ_48  and  CBK_49 
REMARK   33  A    between atoms: CBK_49  and  CBO_50 
ROOT
ATOM      1  CAL 49X A 306     -15.645 -10.159   6.772  1.00 62.39     0.138 C 
ENDROOT
BRANCH   1   2
ATOM      2  CAM 49X A 306     -17.097 -10.390   7.269  1.00 59.99     0.173 C 
BRANCH   2   3
ATOM      3  CAN 49X A 306     -17.679 -11.738   6.958  1.00 59.47     0.149 C 
BRANCH   3   4
ATOM      4  OBN 49X A 306     -16.948 -12.253   5.842  1.00 60.35    -0.393 OA
ATOM      5  HBN 49X A 306     -17.560 -12.765   5.327  1.00  0.00     0.210 HD
ENDBRANCH   3   4
BRANCH   3   6
ATOM      6  CAO 49X A 306     -19.187 -11.752   6.716  1.00 59.79     0.034 C 
BRANCH   6   7
ATOM      7  CAP 49X A 306     -19.567 -13.214   6.498  1.00 64.31     0.002 C 
BRANCH   7   8
ATOM      8  CAQ 49X A 306     -20.745 -13.342   5.532  1.00 70.99     0.000 C 
BRANCH   8   9
ATOM      9  CAR 49X A 306     -22.079 -13.354   6.292  1.00 68.44     0.000 C 
BRANCH   9  10
ATOM     10  CAS 49X A 306     -22.697 -11.945   6.411  1.00 67.12     0.000 C 
BRANCH  10  11
ATOM     11  CAT 49X A 306     -22.969 -11.527   7.870  1.00 57.87     0.000 C 
BRANCH  11  12
ATOM     12  CAU 49X A 306     -22.066 -10.369   8.304  1.00 52.32     0.000 C 
BRANCH  12  13
ATOM     13  CAV 49X A 306     -22.828  -9.058   8.372  1.00 49.84     0.000 C 
BRANCH  13  14
ATOM     14  CAW 49X A 306     -22.600  -8.382   9.710  1.00 48.09     0.000 C 
BRANCH  14  15
ATOM     15  CAX 49X A 306     -22.453  -6.879   9.497  1.00 51.12     0.000 C 
BRANCH  15  16
ATOM     16  CAY 49X A 306     -21.189  -6.556   8.704  1.00 50.82     0.000 C 
BRANCH  16  17
ATOM     17  CAZ 49X A 306     -21.400  -5.291   7.863  1.00 52.17    -0.000 C 
BRANCH  17  18
ATOM     18  CBA 49X A 306     -22.800  -5.278   7.227  1.00 50.92    -0.005 C 
ATOM     19  CBB 49X A 306     -22.808  -6.002   5.864  1.00 47.98     0.005 C 
ENDBRANCH  17  18
ENDBRANCH  16  17
ENDBRANCH  15  16
ENDBRANCH  14  15
ENDBRANCH  13  14
ENDBRANCH  12  13
ENDBRANCH  11  12
ENDBRANCH  10  11
ENDBRANCH   9  10
ENDBRANCH   8   9
ENDBRANCH   7   8
ENDBRANCH   6   7
ENDBRANCH   3   6
ENDBRANCH   2   3
BRANCH   2  20
ATOM     20  OBL 49X A 306     -17.106 -10.430   8.678  1.00 62.78    -0.391 OA
ATOM     21  HBL 49X A 306     -16.428  -9.793   8.872  1.00  0.00     0.210 HD
ENDBRANCH   2  20
ENDBRANCH   1   2
BRANCH   1  22
ATOM     22  CAK 49X A 306     -14.608 -10.447   7.891  1.00 65.93    -0.001 C 
ATOM     23  CAH 49X A 306     -14.072 -11.734   8.043  1.00 63.76     0.005 C 
BRANCH  23  24
ATOM     24  C1  49X A 306     -13.065 -12.093   8.963  1.00 58.39     0.176 C 
ATOM     25  OG  49X A 306     -13.444 -12.939  10.085  1.00 55.42    -0.369 OA
ATOM     26  CG  49X A 306     -14.143 -14.104   9.545  1.00 52.88     0.177 C 
ATOM     27  CG4 49X A 306     -13.174 -14.982   8.695  1.00 51.93     0.180 C 
ATOM     28  CG3 49X A 306     -12.452 -14.159   7.618  1.00 52.27     0.181 C 
ATOM     29  CG2 49X A 306     -11.935 -12.817   8.190  1.00 54.21     0.182 C 
BRANCH  26  30
ATOM     30  CG5 49X A 306     -14.963 -14.820  10.614  1.00 49.26     0.198 C 
BRANCH  30  31
ATOM     31  OG6 49X A 306     -14.864 -16.187  10.303  1.00 49.47    -0.398 OA
ATOM     32  HG6 49X A 306     -14.162 -16.248   9.666  1.00  0.00     0.209 HD
ENDBRANCH  30  31
ENDBRANCH  26  30
BRANCH  27  33
ATOM     33  OG5 49X A 306     -12.222 -15.648   9.526  1.00 46.63    -0.390 OA
ATOM     34  HG5 49X A 306     -12.588 -16.442   9.896  1.00  0.00     0.210 HD
ENDBRANCH  27  33
BRANCH  28  35
ATOM     35  OG4 49X A 306     -11.399 -14.970   7.092  1.00 55.09    -0.390 OA
ATOM     36  HG4 49X A 306     -10.968 -14.471   6.407  1.00  0.00     0.210 HD
ENDBRANCH  28  35
BRANCH  29  37
ATOM     37  OG3 49X A 306     -11.404 -11.932   7.183  1.00 49.35    -0.390 OA
ATOM     38  HG3 49X A 306     -12.005 -11.209   7.050  1.00  0.00     0.210 HD
ENDBRANCH  29  37
ENDBRANCH  23  24
ENDBRANCH   1  22
BRANCH   1  39
ATOM     39  NBC 49X A 306     -15.509  -8.784   6.268  1.00 61.32    -0.351 N 
ATOM     40  CBD 49X A 306     -14.335  -8.284   5.881  1.00 63.21     0.218 C 
ATOM     41  OBM 49X A 306     -13.254  -8.881   5.966  1.00 71.44    -0.274 OA
ATOM     42  HBC 49X A 306     -16.339  -8.194   6.212  1.00  0.00     0.163 HD
BRANCH  40  43
ATOM     43  CBE 49X A 306     -14.407  -6.864   5.335  1.00 56.66     0.103 C 
BRANCH  43  44
ATOM     44  CBF 49X A 306     -15.623  -6.705   4.439  1.00 57.14     0.009 C 
BRANCH  44  45
ATOM     45  CBG 49X A 306     -16.453  -5.483   4.870  1.00 57.97     0.000 C 
BRANCH  45  46
ATOM     46  CBH 49X A 306     -15.597  -4.444   5.607  1.00 56.96     0.000 C 
BRANCH  46  47
ATOM     47  CBI 49X A 306     -15.577  -3.098   4.880  1.00 57.63     0.000 C 
BRANCH  47  48
ATOM     48  CBJ 49X A 306     -14.181  -2.490   4.910  1.00 60.39     0.005 C 
BRANCH  48  49
ATOM     49  CBK 49X A 306     -13.089  -3.558   4.876  1.00 65.37     0.038 C 
BRANCH  49  50
ATOM     50  CBO 49X A 306     -12.180  -3.501   6.129  1.00 75.84    -0.058 A 
ATOM     51  CBR 49X A 306     -11.299  -4.548   6.450  1.00 77.45     0.007 A 
ATOM     52  CBS 49X A 306     -10.488  -4.487   7.592  1.00 75.50     0.001 A 
ATOM     53  CBT 49X A 306     -10.548  -3.370   8.418  1.00 74.02     0.000 A 
ATOM     54  CBU 49X A 306     -11.419  -2.326   8.106  1.00 75.63     0.001 A 
ATOM     55  CBV 49X A 306     -12.231  -2.388   6.971  1.00 77.20     0.007 A 
ENDBRANCH  49  50
ENDBRANCH  48  49
ENDBRANCH  47  48
ENDBRANCH  46  47
ENDBRANCH  45  46
ENDBRANCH  44  45
ENDBRANCH  43  44
ENDBRANCH  40  43
ENDBRANCH   1  39
TORSDOF 33
ENDMDL
MODEL 8
REMARK VINA RESULT:      -7.8      2.967      4.641
REMARK WARNING: 32 MAX_TORS EXCEEDED!!!
REMARK  33 active torsions:
REMARK  status: ('A' for Active; 'I' for Inactive)
REMARK    1  A    between atoms: C1_1  and  CAH_24 
REMARK    2  A    between atoms: CBA_3  and  CAZ_4 
REMARK    3  A    between atoms: CAZ_4  and  CAY_5 
REMARK    4  A    between atoms: CAY_5  and  CAX_6 
REMARK    5  A    between atoms: CAX_6  and  CAW_7 
REMARK    6  A    between atoms: CAW_7  and  CAV_8 
REMARK    7  A    between atoms: CAV_8  and  CAU_9 
REMARK    8  A    between atoms: CAU_9  and  CAT_10 
REMARK    9  A    between atoms: CAT_10  and  CAS_11 
REMARK   10  A    between atoms: CAS_11  and  CAR_12 
REMARK   11  A    between atoms: CAR_12  and  CAQ_13 
REMARK   12  A    between atoms: CAQ_13  and  CAP_14 
REMARK   13  A    between atoms: CAP_14  and  CAO_15 
REMARK   14  A    between atoms: CAO_15  and  CAN_16 
REMARK   15  A    between atoms: CAN_16  and  CAM_19 
REMARK   16  A    between atoms: CAN_16  and  OBN_17 
REMARK   17  A    between atoms: CAM_19  and  OBL_20 
REMARK   18  A    between atoms: CAM_19  and  CAL_22 
REMARK   19  A    between atoms: CAL_22  and  CAK_23 
REMARK   20  A    between atoms: CAL_22  and  NBC_39 
REMARK   21  A    between atoms: CG_26  and  CG5_27 
REMARK   22  A    between atoms: CG5_27  and  OG6_28 
REMARK   23  A    between atoms: CG4_30  and  OG5_31 
REMARK   24  A    between atoms: CG3_33  and  OG4_34 
REMARK   25  A    between atoms: CG2_36  and  OG3_37 
REMARK       I    between atoms: NBC_39  and  CBD_41 
REMARK   26  A    between atoms: CBD_41  and  CBE_43 
REMARK   27  A    between atoms: CBE_43  and  CBF_44 
REMARK   28  A    between atoms: CBF_44  and  CBG_45 
REMARK   29  A    between atoms: CBG_45  and  CBH_46 
REMARK   30  A    between atoms: CBH_46  and  CBI_47 
REMARK   31  A    between atoms: CBI_47  and  CBJ_48 
REMARK   32  A    between atoms: CBJ_48  and  CBK_49 
REMARK   33  A    between atoms: CBK_49  and  CBO_50 
ROOT
ATOM      1  CAL 49X A 306     -17.083 -12.530   9.188  1.00 62.39     0.138 C 
ENDROOT
BRANCH   1   2
ATOM      2  CAM 49X A 306     -18.391 -12.599  10.020  1.00 59.99     0.173 C 
BRANCH   2   3
ATOM      3  CAN 49X A 306     -19.358 -13.672   9.613  1.00 59.47     0.149 C 
BRANCH   3   4
ATOM      4  OBN 49X A 306     -20.538 -13.481  10.399  1.00 60.35    -0.393 OA
ATOM      5  HBN 49X A 306     -21.232 -13.968   9.971  1.00  0.00     0.210 HD
ENDBRANCH   3   4
BRANCH   3   6
ATOM      6  CAO 49X A 306     -18.822 -15.098   9.713  1.00 59.79     0.034 C 
BRANCH   6   7
ATOM      7  CAP 49X A 306     -18.728 -15.617   8.281  1.00 64.31     0.002 C 
BRANCH   7   8
ATOM      8  CAQ 49X A 306     -19.471 -16.945   8.122  1.00 70.99     0.000 C 
BRANCH   8   9
ATOM      9  CAR 49X A 306     -20.383 -16.918   6.888  1.00 68.44     0.000 C 
BRANCH   9  10
ATOM     10  CAS 49X A 306     -21.843 -16.568   7.247  1.00 67.12     0.000 C 
BRANCH  10  11
ATOM     11  CAT 49X A 306     -22.169 -15.072   7.056  1.00 57.87     0.000 C 
BRANCH  11  12
ATOM     12  CAU 49X A 306     -22.225 -14.691   5.574  1.00 52.32     0.000 C 
BRANCH  12  13
ATOM     13  CAV 49X A 306     -21.570 -13.347   5.316  1.00 49.84     0.000 C 
BRANCH  13  14
ATOM     14  CAW 49X A 306     -20.083 -13.418   5.607  1.00 48.09     0.000 C 
BRANCH  14  15
ATOM     15  CAX 49X A 306     -19.683 -12.233   6.480  1.00 51.12     0.000 C 
BRANCH  15  16
ATOM     16  CAY 49X A 306     -20.907 -11.584   7.123  1.00 50.82     0.000 C 
BRANCH  16  17
ATOM     17  CAZ 49X A 306     -20.481 -10.392   7.987  1.00 52.17    -0.000 C 
BRANCH  17  18
ATOM     18  CBA 49X A 306     -21.325 -10.309   9.270  1.00 50.92    -0.005 C 
ATOM     19  CBB 49X A 306     -20.551  -9.618  10.412  1.00 47.98     0.005 C 
ENDBRANCH  17  18
ENDBRANCH  16  17
ENDBRANCH  15  16
ENDBRANCH  14  15
ENDBRANCH  13  14
ENDBRANCH  12  13
ENDBRANCH  11  12
ENDBRANCH  10  11
ENDBRANCH   9  10
ENDBRANCH   8   9
ENDBRANCH   7   8
ENDBRANCH   6   7
ENDBRANCH   3   6
ENDBRANCH   2   3
BRANCH   2  20
ATOM     20  OBL 49X A 306     -18.086 -13.018  11.331  1.00 62.78    -0.391 OA
ATOM     21  HBL 49X A 306     -17.332 -13.571  11.163  1.00  0.00     0.210 HD
ENDBRANCH   2  20
ENDBRANCH   1   2
BRANCH   1  22
ATOM     22  CAK 49X A 306     -15.862 -13.037  10.002  1.00 65.93    -0.001 C 
ATOM     23  CAH 49X A 306     -14.672 -13.386   9.346  1.00 63.76     0.005 C 
BRANCH  23  24
ATOM     24  C1  49X A 306     -13.476 -13.776   9.984  1.00 58.39     0.176 C 
ATOM     25  OG  49X A 306     -13.006 -15.137   9.768  1.00 55.42    -0.369 OA
ATOM     26  CG  49X A 306     -12.966 -15.367   8.325  1.00 52.88     0.177 C 
ATOM     27  CG4 49X A 306     -11.887 -14.463   7.653  1.00 51.93     0.180 C 
ATOM     28  CG3 49X A 306     -12.069 -12.984   8.023  1.00 52.27     0.181 C 
ATOM     29  CG2 49X A 306     -12.349 -12.814   9.536  1.00 54.21     0.182 C 
BRANCH  26  30
ATOM     30  CG5 49X A 306     -12.926 -16.855   7.988  1.00 49.26     0.198 C 
BRANCH  30  31
ATOM     31  OG6 49X A 306     -12.065 -17.427   8.939  1.00 49.47    -0.398 OA
ATOM     32  HG6 49X A 306     -12.525 -17.358   9.767  1.00  0.00     0.209 HD
ENDBRANCH  30  31
ENDBRANCH  26  30
BRANCH  27  33
ATOM     33  OG5 49X A 306     -10.570 -14.897   7.993  1.00 46.63    -0.390 OA
ATOM     34  HG5 49X A 306      -9.954 -14.174   7.967  1.00  0.00     0.210 HD
ENDBRANCH  27  33
BRANCH  28  35
ATOM     35  OG4 49X A 306     -10.893 -12.288   7.603  1.00 55.09    -0.390 OA
ATOM     36  HG4 49X A 306     -10.607 -12.679   6.785  1.00  0.00     0.210 HD
ENDBRANCH  28  35
BRANCH  29  37
ATOM     37  OG3 49X A 306     -12.698 -11.465   9.905  1.00 49.35    -0.390 OA
ATOM     38  HG3 49X A 306     -13.643 -11.367   9.882  1.00  0.00     0.210 HD
ENDBRANCH  29  37
ENDBRANCH  23  24
ENDBRANCH   1  22
BRANCH   1  39
ATOM     39  NBC 49X A 306     -16.868 -11.153   8.719  1.00 61.32    -0.351 N 
ATOM     40  CBD 49X A 306     -16.475 -10.880   7.475  1.00 63.21     0.218 C 
ATOM     41  OBM 49X A 306     -16.190 -11.734   6.624  1.00 71.44    -0.274 OA
ATOM     42  HBC 49X A 306     -17.024 -10.381   9.367  1.00  0.00     0.163 HD
BRANCH  40  43
ATOM     43  CBE 49X A 306     -16.363  -9.394   7.163  1.00 56.66     0.103 C 
BRANCH  43  44
ATOM     44  CBF 49X A 306     -14.980  -9.072   6.622  1.00 57.14     0.009 C 
BRANCH  44  45
ATOM     45  CBG 49X A 306     -15.085  -8.188   5.368  1.00 57.97     0.000 C 
BRANCH  45  46
ATOM     46  CBH 49X A 306     -14.191  -6.944   5.470  1.00 56.96     0.000 C 
BRANCH  46  47
ATOM     47  CBI 49X A 306     -14.587  -5.869   4.457  1.00 57.63     0.000 C 
BRANCH  47  48
ATOM     48  CBJ 49X A 306     -14.530  -4.485   5.090  1.00 60.39     0.005 C 
BRANCH  48  49
ATOM     49  CBK 49X A 306     -13.229  -3.754   4.758  1.00 65.37     0.038 C 
BRANCH  49  50
ATOM     50  CBO 49X A 306     -12.312  -3.606   5.997  1.00 75.84    -0.058 A 
ATOM     51  CBR 49X A 306     -11.421  -4.622   6.381  1.00 77.45     0.007 A 
ATOM     52  CBS 49X A 306     -10.602  -4.478   7.510  1.00 75.50     0.001 A 
ATOM     53  CBT 49X A 306     -10.665  -3.308   8.259  1.00 74.02     0.000 A 
ATOM     54  CBU 49X A 306     -11.547  -2.293   7.884  1.00 75.63     0.001 A 
ATOM     55  CBV 49X A 306     -12.366  -2.438   6.762  1.00 77.20     0.007 A 
ENDBRANCH  49  50
ENDBRANCH  48  49
ENDBRANCH  47  48
ENDBRANCH  46  47
ENDBRANCH  45  46
ENDBRANCH  44  45
ENDBRANCH  43  44
ENDBRANCH  40  43
ENDBRANCH   1  39
TORSDOF 33
ENDMDL
MODEL 9
REMARK VINA RESULT:      -7.8      2.951      4.853
REMARK WARNING: 32 MAX_TORS EXCEEDED!!!
REMARK  33 active torsions:
REMARK  status: ('A' for Active; 'I' for Inactive)
REMARK    1  A    between atoms: C1_1  and  CAH_24 
REMARK    2  A    between atoms: CBA_3  and  CAZ_4 
REMARK    3  A    between atoms: CAZ_4  and  CAY_5 
REMARK    4  A    between atoms: CAY_5  and  CAX_6 
REMARK    5  A    between atoms: CAX_6  and  CAW_7 
REMARK    6  A    between atoms: CAW_7  and  CAV_8 
REMARK    7  A    between atoms: CAV_8  and  CAU_9 
REMARK    8  A    between atoms: CAU_9  and  CAT_10 
REMARK    9  A    between atoms: CAT_10  and  CAS_11 
REMARK   10  A    between atoms: CAS_11  and  CAR_12 
REMARK   11  A    between atoms: CAR_12  and  CAQ_13 
REMARK   12  A    between atoms: CAQ_13  and  CAP_14 
REMARK   13  A    between atoms: CAP_14  and  CAO_15 
REMARK   14  A    between atoms: CAO_15  and  CAN_16 
REMARK   15  A    between atoms: CAN_16  and  CAM_19 
REMARK   16  A    between atoms: CAN_16  and  OBN_17 
REMARK   17  A    between atoms: CAM_19  and  OBL_20 
REMARK   18  A    between atoms: CAM_19  and  CAL_22 
REMARK   19  A    between atoms: CAL_22  and  CAK_23 
REMARK   20  A    between atoms: CAL_22  and  NBC_39 
REMARK   21  A    between atoms: CG_26  and  CG5_27 
REMARK   22  A    between atoms: CG5_27  and  OG6_28 
REMARK   23  A    between atoms: CG4_30  and  OG5_31 
REMARK   24  A    between atoms: CG3_33  and  OG4_34 
REMARK   25  A    between atoms: CG2_36  and  OG3_37 
REMARK       I    between atoms: NBC_39  and  CBD_41 
REMARK   26  A    between atoms: CBD_41  and  CBE_43 
REMARK   27  A    between atoms: CBE_43  and  CBF_44 
REMARK   28  A    between atoms: CBF_44  and  CBG_45 
REMARK   29  A    between atoms: CBG_45  and  CBH_46 
REMARK   30  A    between atoms: CBH_46  and  CBI_47 
REMARK   31  A    between atoms: CBI_47  and  CBJ_48 
REMARK   32  A    between atoms: CBJ_48  and  CBK_49 
REMARK   33  A    between atoms: CBK_49  and  CBO_50 
ROOT
ATOM      1  CAL 49X A 306     -16.793 -11.843   8.958  1.00 62.39     0.138 C 
ENDROOT
BRANCH   1   2
ATOM      2  CAM 49X A 306     -18.089 -11.668   9.794  1.00 59.99     0.173 C 
BRANCH   2   3
ATOM      3  CAN 49X A 306     -19.343 -12.189   9.154  1.00 59.47     0.149 C 
BRANCH   3   4
ATOM      4  OBN 49X A 306     -20.110 -12.804  10.193  1.00 60.35    -0.393 OA
ATOM      5  HBN 49X A 306     -20.316 -13.683   9.897  1.00  0.00     0.210 HD
ENDBRANCH   3   4
BRANCH   3   6
ATOM      6  CAO 49X A 306     -19.124 -13.125   7.967  1.00 59.79     0.034 C 
BRANCH   6   7
ATOM      7  CAP 49X A 306     -19.643 -12.383   6.740  1.00 64.31     0.002 C 
BRANCH   7   8
ATOM      8  CAQ 49X A 306     -19.996 -13.354   5.612  1.00 70.99     0.000 C 
BRANCH   8   9
ATOM      9  CAR 49X A 306     -21.516 -13.537   5.502  1.00 68.44     0.000 C 
BRANCH   9  10
ATOM     10  CAS 49X A 306     -22.293 -12.326   6.060  1.00 67.12     0.000 C 
BRANCH  10  11
ATOM     11  CAT 49X A 306     -23.034 -12.638   7.377  1.00 57.87     0.000 C 
BRANCH  11  12
ATOM     12  CAU 49X A 306     -22.926 -11.480   8.373  1.00 52.32     0.000 C 
BRANCH  12  13
ATOM     13  CAV 49X A 306     -22.674 -10.158   7.672  1.00 49.84     0.000 C 
BRANCH  13  14
ATOM     14  CAW 49X A 306     -22.059  -9.158   8.633  1.00 48.09     0.000 C 
BRANCH  14  15
ATOM     15  CAX 49X A 306     -22.104  -7.767   8.009  1.00 51.12     0.000 C 
BRANCH  15  16
ATOM     16  CAY 49X A 306     -21.208  -6.792   8.769  1.00 50.82     0.000 C 
BRANCH  16  17
ATOM     17  CAZ 49X A 306     -22.031  -5.602   9.276  1.00 52.17    -0.000 C 
BRANCH  17  18
ATOM     18  CBA 49X A 306     -22.004  -5.524  10.811  1.00 50.92    -0.005 C 
ATOM     19  CBB 49X A 306     -22.928  -6.584  11.447  1.00 47.98     0.005 C 
ENDBRANCH  17  18
ENDBRANCH  16  17
ENDBRANCH  15  16
ENDBRANCH  14  15
ENDBRANCH  13  14
ENDBRANCH  12  13
ENDBRANCH  11  12
ENDBRANCH  10  11
ENDBRANCH   9  10
ENDBRANCH   8   9
ENDBRANCH   7   8
ENDBRANCH   6   7
ENDBRANCH   3   6
ENDBRANCH   2   3
BRANCH   2  20
ATOM     20  OBL 49X A 306     -18.024 -12.497  10.932  1.00 62.78    -0.391 OA
ATOM     21  HBL 49X A 306     -17.472 -11.968  11.496  1.00  0.00     0.210 HD
ENDBRANCH   2  20
ENDBRANCH   1   2
BRANCH   1  22
ATOM     22  CAK 49X A 306     -15.608 -12.321   9.839  1.00 65.93    -0.001 C 
ATOM     23  CAH 49X A 306     -14.737 -13.317   9.371  1.00 63.76     0.005 C 
BRANCH  23  24
ATOM     24  C1  49X A 306     -13.583 -13.769  10.042  1.00 58.39     0.176 C 
ATOM     25  OG  49X A 306     -13.181 -15.154   9.841  1.00 55.42    -0.369 OA
ATOM     26  CG  49X A 306     -13.113 -15.389   8.400  1.00 52.88     0.177 C 
ATOM     27  CG4 49X A 306     -11.969 -14.547   7.758  1.00 51.93     0.180 C 
ATOM     28  CG3 49X A 306     -12.081 -13.058   8.120  1.00 52.27     0.181 C 
ATOM     29  CG2 49X A 306     -12.393 -12.870   9.625  1.00 54.21     0.182 C 
BRANCH  26  30
ATOM     30  CG5 49X A 306     -13.144 -16.878   8.065  1.00 49.26     0.198 C 
BRANCH  30  31
ATOM     31  OG6 49X A 306     -12.219 -17.473   8.940  1.00 49.47    -0.398 OA
ATOM     32  HG6 49X A 306     -12.737 -17.805   9.664  1.00  0.00     0.209 HD
ENDBRANCH  30  31
ENDBRANCH  26  30
BRANCH  27  33
ATOM     33  OG5 49X A 306     -10.687 -15.050   8.135  1.00 46.63    -0.390 OA
ATOM     34  HG5 49X A 306     -10.143 -14.361   8.499  1.00  0.00     0.210 HD
ENDBRANCH  27  33
BRANCH  28  35
ATOM     35  OG4 49X A 306     -10.858 -12.429   7.733  1.00 55.09    -0.390 OA
ATOM     36  HG4 49X A 306     -10.343 -12.296   8.520  1.00  0.00     0.210 HD
ENDBRANCH  28  35
BRANCH  29  37
ATOM     37  OG3 49X A 306     -12.680 -11.503   9.983  1.00 49.35    -0.390 OA
ATOM     38  HG3 49X A 306     -11.886 -10.986   9.910  1.00  0.00     0.210 HD
ENDBRANCH  29  37
ENDBRANCH  23  24
ENDBRANCH   1  22
BRANCH   1  39
ATOM     39  NBC 49X A 306     -16.469 -10.578   8.280  1.00 61.32    -0.351 N 
ATOM     40  CBD 49X A 306     -16.182 -10.524   6.980  1.00 63.21     0.218 C 
ATOM     41  OBM 49X A 306     -16.091 -11.511   6.238  1.00 71.44    -0.274 OA
ATOM     42  HBC 49X A 306     -16.464  -9.714   8.823  1.00  0.00     0.163 HD
BRANCH  40  43
ATOM     43  CBE 49X A 306     -15.930  -9.119   6.450  1.00 56.66     0.103 C 
BRANCH  43  44
ATOM     44  CBF 49X A 306     -14.439  -8.880   6.277  1.00 57.14     0.009 C 
BRANCH  44  45
ATOM     45  CBG 49X A 306     -14.187  -7.531   5.583  1.00 57.97     0.000 C 
BRANCH  45  46
ATOM     46  CBH 49X A 306     -15.498  -6.855   5.158  1.00 56.96     0.000 C 
BRANCH  46  47
ATOM     47  CBI 49X A 306     -15.287  -5.390   4.770  1.00 57.63     0.000 C 
BRANCH  47  48
ATOM     48  CBJ 49X A 306     -13.828  -5.129   4.422  1.00 60.39     0.005 C 
BRANCH  48  49
ATOM     49  CBK 49X A 306     -13.413  -3.689   4.725  1.00 65.37     0.038 C 
BRANCH  49  50
ATOM     50  CBO 49X A 306     -12.439  -3.604   5.926  1.00 75.84    -0.058 A 
ATOM     51  CBR 49X A 306     -11.568  -4.659   6.246  1.00 77.45     0.007 A 
ATOM     52  CBS 49X A 306     -10.697  -4.572   7.341  1.00 75.50     0.001 A 
ATOM     53  CBT 49X A 306     -10.688  -3.420   8.121  1.00 74.02     0.000 A 
ATOM     54  CBU 49X A 306     -11.548  -2.367   7.809  1.00 75.63     0.001 A 
ATOM     55  CBV 49X A 306     -12.419  -2.455   6.721  1.00 77.20     0.007 A 
ENDBRANCH  49  50
ENDBRANCH  48  49
ENDBRANCH  47  48
ENDBRANCH  46  47
ENDBRANCH  45  46
ENDBRANCH  44  45
ENDBRANCH  43  44
ENDBRANCH  40  43
ENDBRANCH   1  39
TORSDOF 33
ENDMDL
