MODEL 1
REMARK VINA RESULT:      -6.0      0.000      0.000
REMARK  6 active torsions:
REMARK  status: ('A' for Active; 'I' for Inactive)
REMARK    1  A    between atoms: C1_1  and  C2_2 
REMARK    2  A    between atoms: C2_2  and  C3_3 
REMARK    3  A    between atoms: C3_3  and  C4_4 
REMARK    4  A    between atoms: C4_4  and  C5_5 
REMARK    5  A    between atoms: C5_5  and  C6_6 
REMARK    6  A    between atoms: C6_6  and  C7_7 
ROOT
ATOM      1  C3  OCA C 102     -11.896  -3.274   6.360  1.00 55.29     0.010 C 
ENDROOT
BRANCH   1   2
ATOM      2  C2  OCA C 102     -11.081  -3.237   7.658  1.00 56.68     0.113 C 
BRANCH   2   3
ATOM      3  C1  OCA C 102     -10.389  -4.553   7.938  1.00 59.47     0.172 C 
ATOM      4  O1  OCA C 102      -9.821  -4.686   9.050  1.00 60.31    -0.648 OA
ATOM      5  O2  OCA C 102     -10.400  -5.451   7.054  1.00 61.53    -0.648 OA
ENDBRANCH   2   3
ENDBRANCH   1   2
BRANCH   1   6
ATOM      6  C4  OCA C 102     -13.316  -2.736   6.536  1.00 54.85     0.001 C 
BRANCH   6   7
ATOM      7  C5  OCA C 102     -14.270  -3.137   5.415  1.00 53.43     0.000 C 
BRANCH   7   8
ATOM      8  C6  OCA C 102     -13.601  -4.212   4.560  1.00 53.41    -0.000 C 
BRANCH   8   9
ATOM      9  C7  OCA C 102     -14.459  -5.457   4.390  1.00 52.70    -0.005 C 
ATOM     10  C8  OCA C 102     -13.737  -6.480   3.536  1.00 52.99     0.005 C 
ENDBRANCH   8   9
ENDBRANCH   7   8
ENDBRANCH   6   7
ENDBRANCH   1   6
TORSDOF 6
ENDMDL
MODEL 2
REMARK VINA RESULT:      -5.9      2.126      4.610
REMARK  6 active torsions:
REMARK  status: ('A' for Active; 'I' for Inactive)
REMARK    1  A    between atoms: C1_1  and  C2_2 
REMARK    2  A    between atoms: C2_2  and  C3_3 
REMARK    3  A    between atoms: C3_3  and  C4_4 
REMARK    4  A    between atoms: C4_4  and  C5_5 
REMARK    5  A    between atoms: C5_5  and  C6_6 
REMARK    6  A    between atoms: C6_6  and  C7_7 
ROOT
ATOM      1  C3  OCA C 102     -14.390  -4.608   5.036  1.00 55.29     0.010 C 
ENDROOT
BRANCH   1   2
ATOM      2  C2  OCA C 102     -14.301  -5.786   4.060  1.00 56.68     0.113 C 
BRANCH   2   3
ATOM      3  C1  OCA C 102     -13.377  -6.876   4.558  1.00 59.47     0.172 C 
ATOM      4  O1  OCA C 102     -12.837  -7.617   3.699  1.00 60.31    -0.648 OA
ATOM      5  O2  OCA C 102     -13.194  -7.005   5.798  1.00 61.53    -0.648 OA
ENDBRANCH   2   3
ENDBRANCH   1   2
BRANCH   1   6
ATOM      6  C4  OCA C 102     -13.284  -3.574   4.820  1.00 54.85     0.001 C 
BRANCH   6   7
ATOM      7  C5  OCA C 102     -12.616  -3.107   6.110  1.00 53.43     0.000 C 
BRANCH   7   8
ATOM      8  C6  OCA C 102     -11.438  -4.029   6.415  1.00 53.41    -0.000 C 
BRANCH   8   9
ATOM      9  C7  OCA C 102     -10.724  -3.675   7.712  1.00 52.70    -0.005 C 
ATOM     10  C8  OCA C 102     -11.130  -2.289   8.175  1.00 52.99     0.005 C 
ENDBRANCH   8   9
ENDBRANCH   7   8
ENDBRANCH   6   7
ENDBRANCH   1   6
TORSDOF 6
ENDMDL
MODEL 3
REMARK VINA RESULT:      -5.8      4.296      5.845
REMARK  6 active torsions:
REMARK  status: ('A' for Active; 'I' for Inactive)
REMARK    1  A    between atoms: C1_1  and  C2_2 
REMARK    2  A    between atoms: C2_2  and  C3_3 
REMARK    3  A    between atoms: C3_3  and  C4_4 
REMARK    4  A    between atoms: C4_4  and  C5_5 
REMARK    5  A    between atoms: C5_5  and  C6_6 
REMARK    6  A    between atoms: C6_6  and  C7_7 
ROOT
ATOM      1  C3  OCA C 102     -14.669  -2.424   5.030  1.00 55.29     0.010 C 
ENDROOT
BRANCH   1   2
ATOM      2  C2  OCA C 102     -14.577  -0.896   5.106  1.00 56.68     0.113 C 
BRANCH   2   3
ATOM      3  C1  OCA C 102     -15.345  -0.219   3.991  1.00 59.47     0.172 C 
ATOM      4  O1  OCA C 102     -16.372  -0.797   3.558  1.00 60.31    -0.648 OA
ATOM      5  O2  OCA C 102     -14.925   0.879   3.538  1.00 61.53    -0.648 OA
ENDBRANCH   2   3
ENDBRANCH   1   2
BRANCH   1   6
ATOM      6  C4  OCA C 102     -13.314  -3.088   4.785  1.00 54.85     0.001 C 
BRANCH   6   7
ATOM      7  C5  OCA C 102     -12.974  -4.183   5.793  1.00 53.43     0.000 C 
BRANCH   7   8
ATOM      8  C6  OCA C 102     -11.708  -3.782   6.547  1.00 53.41    -0.000 C 
BRANCH   8   9
ATOM      9  C7  OCA C 102     -11.870  -2.494   7.341  1.00 52.70    -0.005 C 
ATOM     10  C8  OCA C 102     -10.739  -2.345   8.339  1.00 52.99     0.005 C 
ENDBRANCH   8   9
ENDBRANCH   7   8
ENDBRANCH   6   7
ENDBRANCH   1   6
TORSDOF 6
ENDMDL
MODEL 4
REMARK VINA RESULT:      -5.8      1.690      2.879
REMARK  6 active torsions:
REMARK  status: ('A' for Active; 'I' for Inactive)
REMARK    1  A    between atoms: C1_1  and  C2_2 
REMARK    2  A    between atoms: C2_2  and  C3_3 
REMARK    3  A    between atoms: C3_3  and  C4_4 
REMARK    4  A    between atoms: C4_4  and  C5_5 
REMARK    5  A    between atoms: C5_5  and  C6_6 
REMARK    6  A    between atoms: C6_6  and  C7_7 
ROOT
ATOM      1  C3  OCA C 102     -12.089  -4.323   6.104  1.00 55.29     0.010 C 
ENDROOT
BRANCH   1   2
ATOM      2  C2  OCA C 102     -11.115  -3.715   7.118  1.00 56.68     0.113 C 
BRANCH   2   3
ATOM      3  C1  OCA C 102     -10.099  -4.722   7.612  1.00 59.47     0.172 C 
ATOM      4  O1  OCA C 102      -9.825  -4.718   8.838  1.00 60.31    -0.648 OA
ATOM      5  O2  OCA C 102      -9.565  -5.509   6.786  1.00 61.53    -0.648 OA
ENDBRANCH   2   3
ENDBRANCH   1   2
BRANCH   1   6
ATOM      6  C4  OCA C 102     -13.033  -3.286   5.493  1.00 54.85     0.001 C 
BRANCH   6   7
ATOM      7  C5  OCA C 102     -13.688  -2.368   6.521  1.00 53.43     0.000 C 
BRANCH   7   8
ATOM      8  C6  OCA C 102     -14.046  -1.047   5.844  1.00 53.41    -0.000 C 
BRANCH   8   9
ATOM      9  C7  OCA C 102     -14.900  -1.229   4.597  1.00 52.70    -0.005 C 
ATOM     10  C8  OCA C 102     -15.386   0.115   4.092  1.00 52.99     0.005 C 
ENDBRANCH   8   9
ENDBRANCH   7   8
ENDBRANCH   6   7
ENDBRANCH   1   6
TORSDOF 6
ENDMDL
MODEL 5
REMARK VINA RESULT:      -5.5      4.110      5.093
REMARK  6 active torsions:
REMARK  status: ('A' for Active; 'I' for Inactive)
REMARK    1  A    between atoms: C1_1  and  C2_2 
REMARK    2  A    between atoms: C2_2  and  C3_3 
REMARK    3  A    between atoms: C3_3  and  C4_4 
REMARK    4  A    between atoms: C4_4  and  C5_5 
REMARK    5  A    between atoms: C5_5  and  C6_6 
REMARK    6  A    between atoms: C6_6  and  C7_7 
ROOT
ATOM      1  C3  OCA C 102     -14.235  -1.839   5.444  1.00 55.29     0.010 C 
ENDROOT
BRANCH   1   2
ATOM      2  C2  OCA C 102     -14.631  -0.360   5.381  1.00 56.68     0.113 C 
BRANCH   2   3
ATOM      3  C1  OCA C 102     -15.316  -0.005   4.078  1.00 59.47     0.172 C 
ATOM      4  O1  OCA C 102     -14.984   1.070   3.521  1.00 60.31    -0.648 OA
ATOM      5  O2  OCA C 102     -16.189  -0.786   3.613  1.00 61.53    -0.648 OA
ENDBRANCH   2   3
ENDBRANCH   1   2
BRANCH   1   6
ATOM      6  C4  OCA C 102     -13.096  -2.106   6.429  1.00 54.85     0.001 C 
BRANCH   6   7
ATOM      7  C5  OCA C 102     -12.350  -3.411   6.168  1.00 53.43     0.000 C 
BRANCH   7   8
ATOM      8  C6  OCA C 102     -12.933  -4.071   4.920  1.00 53.41    -0.000 C 
BRANCH   8   9
ATOM      9  C7  OCA C 102     -13.284  -5.537   5.130  1.00 52.70    -0.005 C 
ATOM     10  C8  OCA C 102     -13.974  -6.094   3.901  1.00 52.99     0.005 C 
ENDBRANCH   8   9
ENDBRANCH   7   8
ENDBRANCH   6   7
ENDBRANCH   1   6
TORSDOF 6
ENDMDL
MODEL 6
REMARK VINA RESULT:      -5.5      1.564      2.134
REMARK  6 active torsions:
REMARK  status: ('A' for Active; 'I' for Inactive)
REMARK    1  A    between atoms: C1_1  and  C2_2 
REMARK    2  A    between atoms: C2_2  and  C3_3 
REMARK    3  A    between atoms: C3_3  and  C4_4 
REMARK    4  A    between atoms: C4_4  and  C5_5 
REMARK    5  A    between atoms: C5_5  and  C6_6 
REMARK    6  A    between atoms: C6_6  and  C7_7 
ROOT
ATOM      1  C3  OCA C 102     -11.637  -3.731   6.379  1.00 55.29     0.010 C 
ENDROOT
BRANCH   1   2
ATOM      2  C2  OCA C 102     -11.856  -2.596   7.385  1.00 56.68     0.113 C 
BRANCH   2   3
ATOM      3  C1  OCA C 102     -10.779  -2.556   8.448  1.00 59.47     0.172 C 
ATOM      4  O1  OCA C 102     -10.266  -1.441   8.714  1.00 60.31    -0.648 OA
ATOM      5  O2  OCA C 102     -10.435  -3.630   9.011  1.00 61.53    -0.648 OA
ENDBRANCH   2   3
ENDBRANCH   1   2
BRANCH   1   6
ATOM      6  C4  OCA C 102     -12.871  -4.008   5.520  1.00 54.85     0.001 C 
BRANCH   6   7
ATOM      7  C5  OCA C 102     -13.211  -5.490   5.389  1.00 53.43     0.000 C 
BRANCH   7   8
ATOM      8  C6  OCA C 102     -13.794  -5.741   4.001  1.00 53.41    -0.000 C 
BRANCH   8   9
ATOM      9  C7  OCA C 102     -15.070  -6.570   4.031  1.00 52.70    -0.005 C 
ATOM     10  C8  OCA C 102     -16.115  -5.897   4.898  1.00 52.99     0.005 C 
ENDBRANCH   8   9
ENDBRANCH   7   8
ENDBRANCH   6   7
ENDBRANCH   1   6
TORSDOF 6
ENDMDL
MODEL 7
REMARK VINA RESULT:      -5.2      3.291      5.007
REMARK  6 active torsions:
REMARK  status: ('A' for Active; 'I' for Inactive)
REMARK    1  A    between atoms: C1_1  and  C2_2 
REMARK    2  A    between atoms: C2_2  and  C3_3 
REMARK    3  A    between atoms: C3_3  and  C4_4 
REMARK    4  A    between atoms: C4_4  and  C5_5 
REMARK    5  A    between atoms: C5_5  and  C6_6 
REMARK    6  A    between atoms: C6_6  and  C7_7 
ROOT
ATOM      1  C3  OCA C 102     -14.692  -3.823   5.112  1.00 55.29     0.010 C 
ENDROOT
BRANCH   1   2
ATOM      2  C2  OCA C 102     -14.361  -5.189   4.501  1.00 56.68     0.113 C 
BRANCH   2   3
ATOM      3  C1  OCA C 102     -15.552  -6.122   4.505  1.00 59.47     0.172 C 
ATOM      4  O1  OCA C 102     -15.530  -7.096   3.712  1.00 60.31    -0.648 OA
ATOM      5  O2  OCA C 102     -16.514  -5.885   5.284  1.00 61.53    -0.648 OA
ENDBRANCH   2   3
ENDBRANCH   1   2
BRANCH   1   6
ATOM      6  C4  OCA C 102     -13.495  -2.871   5.118  1.00 54.85     0.001 C 
BRANCH   6   7
ATOM      7  C5  OCA C 102     -13.428  -1.974   6.351  1.00 53.43     0.000 C 
BRANCH   7   8
ATOM      8  C6  OCA C 102     -12.172  -2.325   7.146  1.00 53.41    -0.000 C 
BRANCH   8   9
ATOM      9  C7  OCA C 102     -11.510  -3.613   6.677  1.00 52.70    -0.005 C 
ATOM     10  C8  OCA C 102     -10.540  -4.118   7.727  1.00 52.99     0.005 C 
ENDBRANCH   8   9
ENDBRANCH   7   8
ENDBRANCH   6   7
ENDBRANCH   1   6
TORSDOF 6
ENDMDL
MODEL 8
REMARK VINA RESULT:      -5.2      2.736      4.797
REMARK  6 active torsions:
REMARK  status: ('A' for Active; 'I' for Inactive)
REMARK    1  A    between atoms: C1_1  and  C2_2 
REMARK    2  A    between atoms: C2_2  and  C3_3 
REMARK    3  A    between atoms: C3_3  and  C4_4 
REMARK    4  A    between atoms: C4_4  and  C5_5 
REMARK    5  A    between atoms: C5_5  and  C6_6 
REMARK    6  A    between atoms: C6_6  and  C7_7 
ROOT
ATOM      1  C3  OCA C 102     -15.437  -5.696   4.717  1.00 55.29     0.010 C 
ENDROOT
BRANCH   1   2
ATOM      2  C2  OCA C 102     -15.037  -7.016   4.050  1.00 56.68     0.113 C 
BRANCH   2   3
ATOM      3  C1  OCA C 102     -13.654  -7.471   4.464  1.00 59.47     0.172 C 
ATOM      4  O1  OCA C 102     -12.786  -7.586   3.563  1.00 60.31    -0.648 OA
ATOM      5  O2  OCA C 102     -13.430  -7.724   5.678  1.00 61.53    -0.648 OA
ENDBRANCH   2   3
ENDBRANCH   1   2
BRANCH   1   6
ATOM      6  C4  OCA C 102     -14.338  -4.635   4.639  1.00 54.85     0.001 C 
BRANCH   6   7
ATOM      7  C5  OCA C 102     -14.194  -3.803   5.910  1.00 53.43     0.000 C 
BRANCH   7   8
ATOM      8  C6  OCA C 102     -12.859  -3.064   5.866  1.00 53.41    -0.000 C 
BRANCH   8   9
ATOM      9  C7  OCA C 102     -12.905  -1.709   6.557  1.00 52.70    -0.005 C 
ATOM     10  C8  OCA C 102     -14.058  -0.884   6.021  1.00 52.99     0.005 C 
ENDBRANCH   8   9
ENDBRANCH   7   8
ENDBRANCH   6   7
ENDBRANCH   1   6
TORSDOF 6
ENDMDL
MODEL 9
REMARK VINA RESULT:      -5.1      1.993      2.728
REMARK  6 active torsions:
REMARK  status: ('A' for Active; 'I' for Inactive)
REMARK    1  A    between atoms: C1_1  and  C2_2 
REMARK    2  A    between atoms: C2_2  and  C3_3 
REMARK    3  A    between atoms: C3_3  and  C4_4 
REMARK    4  A    between atoms: C4_4  and  C5_5 
REMARK    5  A    between atoms: C5_5  and  C6_6 
REMARK    6  A    between atoms: C6_6  and  C7_7 
ROOT
ATOM      1  C3  OCA C 102     -10.507  -4.570   7.266  1.00 55.29     0.010 C 
ENDROOT
BRANCH   1   2
ATOM      2  C2  OCA C 102     -10.693  -3.859   8.611  1.00 56.68     0.113 C 
BRANCH   2   3
ATOM      3  C1  OCA C 102     -10.814  -2.358   8.454  1.00 59.47     0.172 C 
ATOM      4  O1  OCA C 102      -9.753  -1.685   8.468  1.00 60.31    -0.648 OA
ATOM      5  O2  OCA C 102     -11.958  -1.846   8.328  1.00 61.53    -0.648 OA
ENDBRANCH   2   3
ENDBRANCH   1   2
BRANCH   1   6
ATOM      6  C4  OCA C 102     -11.562  -4.169   6.233  1.00 54.85     0.001 C 
BRANCH   6   7
ATOM      7  C5  OCA C 102     -12.547  -5.284   5.895  1.00 53.43     0.000 C 
BRANCH   7   8
ATOM      8  C6  OCA C 102     -13.501  -4.786   4.812  1.00 53.41    -0.000 C 
BRANCH   8   9
ATOM      9  C7  OCA C 102     -13.522  -3.269   4.687  1.00 52.70    -0.005 C 
ATOM     10  C8  OCA C 102     -14.890  -2.730   5.056  1.00 52.99     0.005 C 
ENDBRANCH   8   9
ENDBRANCH   7   8
ENDBRANCH   6   7
ENDBRANCH   1   6
TORSDOF 6
ENDMDL
