REMARK WARNING: 32 MAX_TORS EXCEEDED!!!
REMARK  33 active torsions:
REMARK  status: ('A' for Active; 'I' for Inactive)
REMARK    1  A    between atoms: C1_1  and  CAH_24 
REMARK    2  A    between atoms: CBA_3  and  CAZ_4 
REMARK    3  A    between atoms: CAZ_4  and  CAY_5 
REMARK    4  A    between atoms: CAY_5  and  CAX_6 
REMARK    5  A    between atoms: CAX_6  and  CAW_7 
REMARK    6  A    between atoms: CAW_7  and  CAV_8 
REMARK    7  A    between atoms: CAV_8  and  CAU_9 
REMARK    8  A    between atoms: CAU_9  and  CAT_10 
REMARK    9  A    between atoms: CAT_10  and  CAS_11 
REMARK   10  A    between atoms: CAS_11  and  CAR_12 
REMARK   11  A    between atoms: CAR_12  and  CAQ_13 
REMARK   12  A    between atoms: CAQ_13  and  CAP_14 
REMARK   13  A    between atoms: CAP_14  and  CAO_15 
REMARK   14  A    between atoms: CAO_15  and  CAN_16 
REMARK   15  A    between atoms: CAN_16  and  CAM_19 
REMARK   16  A    between atoms: CAN_16  and  OBN_17 
REMARK   17  A    between atoms: CAM_19  and  OBL_20 
REMARK   18  A    between atoms: CAM_19  and  CAL_22 
REMARK   19  A    between atoms: CAL_22  and  CAK_23 
REMARK   20  A    between atoms: CAL_22  and  NBC_39 
REMARK   21  A    between atoms: CG_26  and  CG5_27 
REMARK   22  A    between atoms: CG5_27  and  OG6_28 
REMARK   23  A    between atoms: CG4_30  and  OG5_31 
REMARK   24  A    between atoms: CG3_33  and  OG4_34 
REMARK   25  A    between atoms: CG2_36  and  OG3_37 
REMARK       I    between atoms: NBC_39  and  CBD_41 
REMARK   26  A    between atoms: CBD_41  and  CBE_43 
REMARK   27  A    between atoms: CBE_43  and  CBF_44 
REMARK   28  A    between atoms: CBF_44  and  CBG_45 
REMARK   29  A    between atoms: CBG_45  and  CBH_46 
REMARK   30  A    between atoms: CBH_46  and  CBI_47 
REMARK   31  A    between atoms: CBI_47  and  CBJ_48 
REMARK   32  A    between atoms: CBJ_48  and  CBK_49 
REMARK   33  A    between atoms: CBK_49  and  CBO_50 
ROOT
ATOM      1  CAL 49X A 306       6.898  -0.332  20.325  1.00 62.39     0.138 C 
ENDROOT
BRANCH   1   2
ATOM      2  CAM 49X A 306       6.849   1.170  19.938  1.00 59.99     0.173 C 
BRANCH   2   3
ATOM      3  CAN 49X A 306       8.128   1.929  20.138  1.00 59.47     0.149 C 
BRANCH   3   4
ATOM      4  OBN 49X A 306       9.111   1.304  19.308  1.00 60.35    -0.393 OA
ATOM      5  HBN 49X A 306       9.921   1.784  19.435  1.00  0.00     0.210 HD
ENDBRANCH   3   4
BRANCH   3   6
ATOM      6  CAO 49X A 306       8.590   2.048  21.589  1.00 59.79     0.034 C 
BRANCH   6   7
ATOM      7  CAP 49X A 306       9.774   3.010  21.579  1.00 64.31     0.002 C 
BRANCH   7   8
ATOM      8  CAQ 49X A 306      10.434   3.092  22.956  1.00 70.99     0.000 C 
BRANCH   8   9
ATOM      9  CAR 49X A 306      11.235   4.393  23.104  1.00 68.44     0.000 C 
BRANCH   9  10
ATOM     10  CAS 49X A 306      12.550   4.365  22.297  1.00 67.12     0.000 C 
BRANCH  10  11
ATOM     11  CAT 49X A 306      12.918   5.737  21.695  1.00 57.87     0.000 C 
BRANCH  11  12
ATOM     12  CAU 49X A 306      12.273   6.887  22.474  1.00 52.32     0.000 C 
BRANCH  12  13
ATOM     13  CAV 49X A 306      12.990   8.202  22.229  1.00 49.84     0.000 C 
BRANCH  13  14
ATOM     14  CAW 49X A 306      13.571   8.235  20.828  1.00 48.09     0.000 C 
BRANCH  14  15
ATOM     15  CAX 49X A 306      13.613   9.677  20.334  1.00 51.12     0.000 C 
BRANCH  15  16
ATOM     16  CAY 49X A 306      14.790   9.902  19.388  1.00 50.82     0.000 C 
BRANCH  16  17
ATOM     17  CAZ 49X A 306      14.315   9.854  17.931  1.00 52.17    -0.000 C 
BRANCH  17  18
ATOM     18  CBA 49X A 306      15.492   9.603  16.974  1.00 50.92    -0.005 C 
ATOM     19  CBB 49X A 306      15.305  10.354  15.639  1.00 47.98     0.005 C 
ENDBRANCH  17  18
ENDBRANCH  16  17
ENDBRANCH  15  16
ENDBRANCH  14  15
ENDBRANCH  13  14
ENDBRANCH  12  13
ENDBRANCH  11  12
ENDBRANCH  10  11
ENDBRANCH   9  10
ENDBRANCH   8   9
ENDBRANCH   7   8
ENDBRANCH   6   7
ENDBRANCH   3   6
ENDBRANCH   2   3
BRANCH   2  20
ATOM     20  OBL 49X A 306       6.702   1.286  18.541  1.00 62.78    -0.391 OA
ATOM     21  HBL 49X A 306       5.892   0.806  18.414  1.00  0.00     0.210 HD
ENDBRANCH   2  20
ENDBRANCH   1   2
BRANCH   1  22
ATOM     22  CAK 49X A 306       5.839  -1.156  19.545  1.00 65.93    -0.001 C 
ATOM     23  CAH 49X A 306       4.500  -0.738  19.516  1.00 63.76     0.005 C 
BRANCH  23  24
ATOM     24  C1  49X A 306       3.471  -1.355  18.775  1.00 58.39     0.176 C 
ATOM     25  OG  49X A 306       3.290  -2.791  18.933  1.00 55.42    -0.369 OA
ATOM     26  CG  49X A 306       3.187  -3.069  20.364  1.00 52.88     0.177 C 
ATOM     27  CG4 49X A 306       1.889  -2.438  20.955  1.00 51.93     0.180 C 
ATOM     28  CG3 49X A 306       1.776  -0.943  20.622  1.00 52.27     0.181 C 
ATOM     29  CG2 49X A 306       2.131  -0.671  19.140  1.00 54.21     0.182 C 
BRANCH  26  30
ATOM     30  CG5 49X A 306       3.442  -4.541  20.677  1.00 49.26     0.198 C 
BRANCH  30  31
ATOM     31  OG6 49X A 306       2.781  -4.781  21.893  1.00 49.47    -0.398 OA
ATOM     32  HG6 49X A 306       2.940  -5.697  22.088  1.00  0.00     0.209 HD
ENDBRANCH  30  31
ENDBRANCH  26  30
BRANCH  27  33
ATOM     33  OG5 49X A 306       0.727  -3.133  20.500  1.00 46.63    -0.390 OA
ATOM     34  HG5 49X A 306      -0.064  -2.749  20.860  1.00  0.00     0.210 HD
ENDBRANCH  27  33
BRANCH  28  35
ATOM     35  OG4 49X A 306       0.448  -0.529  20.951  1.00 55.09    -0.390 OA
ATOM     36  HG4 49X A 306       0.378   0.396  20.745  1.00  0.00     0.210 HD
ENDBRANCH  28  35
BRANCH  29  37
ATOM     37  OG3 49X A 306       2.209   0.733  18.819  1.00 49.35    -0.390 OA
ATOM     38  HG3 49X A 306       1.387   1.153  19.043  1.00  0.00     0.210 HD
ENDBRANCH  29  37
ENDBRANCH  23  24
ENDBRANCH   1  22
BRANCH   1  39
ATOM     39  NBC 49X A 306       6.711  -0.474  21.777  1.00 61.32    -0.351 N 
ATOM     40  CBD 49X A 306       6.944  -1.622  22.413  1.00 63.21     0.218 C 
ATOM     41  OBM 49X A 306       7.267  -2.681  21.858  1.00 71.44    -0.274 OA
ATOM     42  HBC 49X A 306       6.393   0.332  22.315  1.00  0.00     0.163 HD
BRANCH  40  43
ATOM     43  CBE 49X A 306       6.749  -1.555  23.922  1.00 56.66     0.103 C 
BRANCH  43  44
ATOM     44  CBF 49X A 306       8.054  -1.866  24.636  1.00 57.14     0.009 C 
BRANCH  44  45
ATOM     45  CBG 49X A 306       8.246  -0.927  25.839  1.00 57.97     0.000 C 
BRANCH  45  46
ATOM     46  CBH 49X A 306       9.509  -0.067  25.695  1.00 56.96     0.000 C 
BRANCH  46  47
ATOM     47  CBI 49X A 306      10.542  -0.380  26.779  1.00 57.63     0.000 C 
BRANCH  47  48
ATOM     48  CBJ 49X A 306      11.919   0.129  26.374  1.00 60.39     0.005 C 
BRANCH  48  49
ATOM     49  CBK 49X A 306      12.693   0.700  27.562  1.00 65.37     0.038 C 
BRANCH  49  50
ATOM     50  CBO 49X A 306      14.149   0.176  27.615  1.00 75.84    -0.058 A 
ATOM     51  CBR 49X A 306      14.566  -0.925  26.848  1.00 77.45     0.007 A 
ATOM     52  CBS 49X A 306      15.885  -1.395  26.912  1.00 75.50     0.001 A 
ATOM     53  CBT 49X A 306      16.801  -0.757  27.742  1.00 74.02     0.000 A 
ATOM     54  CBU 49X A 306      16.396   0.338  28.506  1.00 75.63     0.001 A 
ATOM     55  CBV 49X A 306      15.081   0.803  28.446  1.00 77.20     0.007 A 
ENDBRANCH  49  50
ENDBRANCH  48  49
ENDBRANCH  47  48
ENDBRANCH  46  47
ENDBRANCH  45  46
ENDBRANCH  44  45
ENDBRANCH  43  44
ENDBRANCH  40  43
ENDBRANCH   1  39
TORSDOF 33
