REMARK  6 active torsions:
REMARK  status: ('A' for Active; 'I' for Inactive)
REMARK    1  A    between atoms: C1_1  and  C2_2 
REMARK    2  A    between atoms: C2_2  and  C3_3 
REMARK    3  A    between atoms: C3_3  and  C4_4 
REMARK    4  A    between atoms: C4_4  and  C5_5 
REMARK    5  A    between atoms: C5_5  and  C6_6 
REMARK    6  A    between atoms: C6_6  and  C7_7 
ROOT
ATOM      1  C3  OCA C 102      35.425   3.512  35.449  1.00 55.29     0.010 C 
ENDROOT
BRANCH   1   2
ATOM      2  C2  OCA C 102      34.053   3.000  35.900  1.00 56.68     0.113 C 
BRANCH   2   3
ATOM      3  C1  OCA C 102      34.163   1.857  36.886  1.00 59.47     0.172 C 
ATOM      4  O1  OCA C 102      33.518   0.809  36.635  1.00 60.31    -0.648 OA
ATOM      5  O2  OCA C 102      34.879   2.001  37.913  1.00 61.53    -0.648 OA
ENDBRANCH   2   3
ENDBRANCH   1   2
BRANCH   1   6
ATOM      6  C4  OCA C 102      35.834   4.808  36.150  1.00 54.85     0.001 C 
BRANCH   6   7
ATOM      7  C5  OCA C 102      36.728   5.710  35.304  1.00 53.43     0.000 C 
BRANCH   7   8
ATOM      8  C6  OCA C 102      36.686   7.124  35.879  1.00 53.41    -0.000 C 
BRANCH   8   9
ATOM      9  C7  OCA C 102      37.663   8.073  35.200  1.00 52.70    -0.005 C 
ATOM     10  C8  OCA C 102      37.503   9.476  35.751  1.00 52.99     0.005 C 
ENDBRANCH   8   9
ENDBRANCH   7   8
ENDBRANCH   6   7
ENDBRANCH   1   6
TORSDOF 6
